      Date: 06/19/2023      Time: 21:18:57  

     ___________________________________________________
     |                                                 |
     |  Livermore  Software  Technology  Corporation   |
     |                                                 |
     |  7374 Las Positas Road                          |
     |  Livermore, CA 94551                            |
     |  Tel: (925) 449-2500  Fax: (925) 449-2507       |
     |  www.lstc.com                                   |
     |_________________________________________________|
     |                                                 |
     |  LS-DYNA, A Program for Nonlinear Dynamic       |
     |  Analysis of Structures in Three Dimensions     |
     |  Version : smp d R11.0.0   Date: 08/27/2018     |
     |  Revision: 129956          Time: 13:04:10       |
     |                                                 |
     |  Features enabled in this version:              |
     |    Shared Memory Parallel                       |
     |    CESE CHEMISTRY EM ICFD STOCHASTIC_PARTICLES  |
     |    FFTW (multi-dimensional FFTW Library)        |
     |    ARPACK (nonsymmetric eigensolver library)    |
     |    ANSYS Database format                        |
     |    NSYS License (ANSYS145)                      |
     |    BigID  option                                |
     |                                                 |
     |  Licensed to:                                   |
     |                                                 |
     |  Platform   : WINDOWS X64                       |
     |  OS Level   : Windows 7/8/10 & Srv 2008/2012 R2 |
     |  Compiler   : Intel Fortran 13.1 & MSVC++ 2010  |
     |  Hostname   : MX19                              |
     |  Precision  : Double precision (I8R8)           |
     |  SVN Version: 129958                            |
     |                                                 |
     |  Unauthorized use infringes LSTC copyrights     |
     |_________________________________________________|


 Input file: F:\@Model\01_Connector_Test\018_NodalRigidbody\NodalRigidbody-C3D4.k            

 The native file format       : 64-bit small endian
 Memory size from default     :    20000000

 ********  notice  ********  notice  ********  notice  ********
 *                                                            *
 * This is the LS-DYNA Finite Element code.                   *
 *                                                            *
 * Neither LSTC nor the authors assume any responsibility for *
 * the validity, accuracy, or applicability of any results    *
 * obtained from this system. Users must verify their own     *
 * results.                                                   *
 *                                                            *
 * LSTC endeavors to make the LS-DYNA code as complete,       *
 * accurate and easy to use as possible.                      *
 * Suggestions and comments are welcomed.  Please report any  *
 * errors encountered in either the documentation or results  *
 * immediately to LSTC through your site focus.               *
 *                                                            *
 * Copyright (C) 1990-2018                                    *
 * by Livermore Software Technology Corp. (LSTC)              *
 * All rights reserved                                        *
 *                                                            *
 ********  notice  ********  notice  ********  notice  ********

 Beginning of keyword reader                                   06/19/23 21:18:57


         **            ******  **********    *******                            
         **           *******  **********   ********                            
         **          **            **      ***                                  
         **           *******      **      **                                   
         **                 **     **      ***                                  
         *********   ********      **       ********                            
         *********   ******        **         ******                            
                                                                                
                                                                                
**           ******    *******    **    **  *      **    *****                  
**          *******    ********   **    **  **     **   *******                 
**         **          **   ***   **    **  ***    **  ***   ***                
**           **        **   ***   **    **  ***    **  ***   ***                
**             **   ** **    **     ****    ** **  **  *********                
**               **    **   ***      **     **    ***  **     **                
**               **    **   ***      **     **    ***  **     **                
*********  *******     *******       **     **     **  **     **                
*********  *******     ******        **     **      *  **     **                

            L I S T   O F   K E Y W O R D   C O U N T S   

total # of *AIRBAG_option..........................       0
total # of *AIRBAG_INTERACTION.....................       0
total # of *AIRBAG_PARTICLE........................       0
total # of *AIRBAG_REFERENCE_GEOMETRY..............       0
total # of *AIRBAG_SHELL_REFERENCE_GEOMETRY........       0
total # of *ALE_AMBIENT_HYDROSTATIC................       0
total # of *ALE_COUPLING_NODAL.....................       0
total # of *ALE_ELEMENT_POROSITY...................       0
total # of *ALE_FAIL_SWITCH_MMG....................       0
total # of *ALE_FRAGMENTATION......................       0
total # of *ALE_FSI_SWITCH_MMG.....................       0
total # of *ALE_REFERENCE_SYSTEM_GROUP.............       0
total # of *ALE_SWITCH_MMG.........................       0
total # of *BOUNDARY_ACOUSTIC_COUPLING.............       0
total # of *BOUNDARY_ACOUSTIC_COUPLING_MISMATCH....       0
total # of *BOUNDARY_ACOUSTIC_MAPPING..............       0
total # of *BOUNDARY_AEROHEATING_SEGMENT...........       0
total # of *BOUNDARY_ALE_MIXING_LENGTH.............       0
total # of *BOUNDARY_AMBIENT.......................       0
total # of *BOUNDARY_CONVECTION_SEGMENT............       0
total # of *BOUNDARY_CONVECTION_SET................       0
total # of *BOUNDARY_CYCLIC........................       0
total # of *BOUNDARY_DE_NON_REFLECTING.............       0
total # of *BOUNDARY_ELEMENT_METHOD_FLOW...........       0
total # of *BOUNDARY_ELEMENT_METHOD_CONTROL........       0
total # of *BOUNDARY_ELEMENT_METHOD_NEIGHBOR.......       0
total # of *BOUNDARY_ELEMENT_METHOD_WAKE...........       0
total # of *BOUNDARY_ELEMENT_METHOD_SYMMETRY.......       0
total # of *BOUNDARY_FIRE_SEGMENT..................       0
total # of *BOUNDARY_FLUX_SEGMENT..................       0
total # of *BOUNDARY_FLUX_SET......................       0
total # of *BOUNDARY_NON_REFLECTING................       0
total # of *BOUNDARY_MCOL..........................       0
total # of *BOUNDARY_PORE_FLUID ...................       0
total # of *BOUNDARY_PRESCRIBED_MOTION_NODE.+RIGID.       0
total # of *BOUNDARY_PRESCRIBED_FINAL_GEOMETRY.....       0
total # of *BOUNDARY_PRESCRIBED_MOTION_SET.........       0
total # of *BOUNDARY_PRESCRIBED_ORIENTATION........       0
total # of *BOUNDARY_PRESCRIBED_ACCELEROMETER......       0
total # of *BOUNDARY_PRESSURE_OUTFLOW_SEGMENT......       0
total # of *BOUNDARY_PRESSURE_OUTFLOW_SET..........       0
total # of *BOUNDARY_PWP_OPTION ...................       0
total # of *BOUNDARY_RADIATION_SEGMENT.(Type 1)....       0
total # of *BOUNDARY_RADIATION_SET.................       0
total # of *BOUNDARY_RADIATION_SEGMENT.(Type 2)....       0
total # of *BOUNDARY_RADIATION_SET.(Type 2)........       0
total # of *BOUNDARY_SLIDING_PLANE.................       0
total # of *BOUNDARY_SPC_NODE......................       0
total # of *BOUNDARY_SPC_SET.......................       2
total # of *BOUNDARY_SPH_FLOW......................       0
total # of *BOUNDARY_SPH_SYMMETRY_PLANE............       0
total # of *BOUNDARY_SYMMETRY_FAILURE..............       0
total # of *BOUNDARY_TEMPERATURE_NODE..............       0
total # of *BOUNDARY_TEMPERATURE_SET...............       0
total # of *BOUNDARY_THERMAL_BULKFLOW_SET..........       0
total # of *BOUNDARY_THERMAL_BULKFLOW_ELEMENT......       0
total # of *BOUNDARY_THERMAL_BULKNODE..............       0
total # of *BOUNDARY_THERMAL_WELD..................       0
total # of *BOUNDARY_USA...........................       0
total # of *BOUNDARY_PZEPOT........................       0
total # of *LOAD_PZECHARGE ........................       0
total # of *CESE_BOUNDARY_AXISYMMETRIC_PART........       0
total # of *CESE_BOUNDARY_AXISYMMETRIC_PART_SET....       0
total # of *CESE_BOUNDARY_AXISYMMETRIC_SEGMENT.....       0
total # of *CESE_BOUNDARY_AXISYMMETRIC_SET.........       0
total # of *CESE_BOUNDARY_CONJ_HEAT_PART...........       0
total # of *CESE_BOUNDARY_CONJ_HEAT_PART_SET.......       0
total # of *CESE_BOUNDARY_CONJ_HEAT_SEGMENT........       0
total # of *CESE_BOUNDARY_CONJ_HEAT_SET............       0
total # of *CESE_BOUNDARY_CYCLIC_PART..............       0
total # of *CESE_BOUNDARY_CYCLIC_PART_SET..........       0
total # of *CESE_BOUNDARY_CYCLIC_SEGMENT...........       0
total # of *CESE_BOUNDARY_CYCLIC_SET...............       0
total # of *CESE_BOUNDARY_FSI_PART.................       0
total # of *CESE_BOUNDARY_FSI_PART_SET.............       0
total # of *CESE_BOUNDARY_FSI_SEGMENT..............       0
total # of *CESE_BOUNDARY_FSI_SET..................       0
total # of *CESE_BOUNDARY_NON_REFLECTIVE_PART......       0
total # of *CESE_BOUNDARY_NON_REFLECTIVE_PART_SET..       0
total # of *CESE_BOUNDARY_NON_REFLECTIVE_SEGMENT...       0
total # of *CESE_BOUNDARY_NON_REFLECTIVE_SET.......       0
total # of *CESE_BOUNDARY_PRESCRIBED_PART..........       0
total # of *CESE_BOUNDARY_PRESCRIBED_PART_SET......       0
total # of *CESE_BOUNDARY_PRESCRIBED_SEGMENT.......       0
total # of *CESE_BOUNDARY_PRESCRIBED_SET...........       0
total # of *CESE_BOUNDARY_REFLECTIVE_PART..........       0
total # of *CESE_BOUNDARY_REFLECTIVE_PART_SET......       0
total # of *CESE_BOUNDARY_REFLECTIVE_SEGMENT.......       0
total # of *CESE_BOUNDARY_REFLECTIVE_SET...........       0
total # of *CESE_BOUNDARY_SLIDING_PART.............       0
total # of *CESE_BOUNDARY_SLIDING_PART_SET.........       0
total # of *CESE_BOUNDARY_SLIDING_SEGMENT..........       0
total # of *CESE_BOUNDARY_SLIDING_SET..............       0
total # of *CESE_BOUNDARY_SOLID_WALL_PART..........       0
total # of *CESE_BOUNDARY_SOLID_WALL_PART_SET......       0
total # of *CESE_BOUNDARY_SOLID_WALL_SEGMENT.......       0
total # of *CESE_BOUNDARY_SOLID_WALL_SET...........       0
total # of *CESE_CHEMISTRY_D3PLOT..................       0
total # of *CESE_CONTROL_SOLVER....................       0
total # of *CESE_CONTROL_TIMESTEP..................       0
total # of *CESE_CONTROL_LIMITER...................       0
total # of *CESE_CONTROL_MESH_MOV..................       0
total # of *CESE_CONTROL_TURBULENCE................       0
total # of *CESE_DRAG..............................       0
total # of *CESE_EOS...............................       0
total # of *CESE_FSI_EXCLUDE.......................       0
total # of *CESE_DEFINE_POINT......................       0
total # of *CESE_INITIAL...........................       0
total # of *CESE_INITIAL_CHEMISTRY.................       0
total # of *CESE_INITIAL_CHEMISTRY_ELEMENT.........       0
total # of *CESE_INITIAL_CHEMISTRY_PART............       0
total # of *CESE_INITIAL_CHEMISTRY_SET.............       0
total # of *CESE_INITIAL_SET.......................       0
total # of *CESE_INITIAL_SEGMENT...................       0
total # of *CESE_MAT...............................       0
total # of *CESE_PART..............................       0
total # of *CESE_PART_MESH.........................       0
total # of *CESE_SURFACE_MECHSSID_D3PLOT...........       0
total # of *CESE_SURFACE_MECHVARS_D3PLOT...........       0
total # of *CHEMISTRY_COMPOSITION..................       0
total # of *CHEMISTRY_CONTROL_0D...................       0
total # of *CHEMISTRY_CONTROL_1D...................       0
total # of *CHEMISTRY_CONTROL_CSP..................       0
total # of *CHEMISTRY_CONTROL_FULL.................       0
total # of *CHEMISTRY_CONTROL_INFLATOR.............       0
total # of *CHEMISTRY_CONTROL_ZND..................       0
total # of *CHEMISTRY_DET_INITIATION...............       0
total # of *CHEMISTRY_INFLATOR_PROPERTIES..........       0
total # of *CHEMISTRY_PATH.........................       0
total # of *COMPONENT_GEBOD........................       0
total # of *COMPONENT_GEBOD_JOINT..................       0
total # of *COMPONENT_HYBRIDIII....................       0
total # of *COMPONENT_HYBRIDIII_JOINT..............       0
total # of *CONSTRAINED_BEAM_IN_SOLID..............       0
total # of *CONSTRAINED_BUTT_WELD..................       0
total # of *CONSTRAINED_EXTRA_NODES................       0
total # of *CONSTRAINED_EXTRA_NODES_SET............       0
total # of *CONSTRAINED_GLOBAL.....................       0
total # of *CONSTRAINED_INTERPOLATION..............       0
total # of *CONSTRAINED_JOINT_type.................       0
total # of *CONSTRAINED_JOINT_COOR_type............       0
total # of *CONSTRAINED_JOINT_..._FAILURE..........       0
total # of *CONSTRAINED_JOINT_USER_FORCE...........       0
total # of *CONSTRAINED_JOINT_STIFFNESS_type.......       0
total # of *CONSTRAINED_LAGRANGE_IN_SOLID..........       0
total # of *CONSTRAINED_LINEAR.....................       0
total # of *CONSTRAINED_LINEAR_LOCAL...............       0
total # of *CONSTRAINED_NODAL_RIGID_BODY_option....       1
total # of *CONSTRAINED_NODE_SET...................       0
total # of *CONSTRAINED_RIGID_BODIES...............       0
total # of *CONSTRAINED_RIGID_BODY_STOPPERS........       0
total # of *CONSTRAINED_SHELL-SOLID................       0
total # of *CONSTRAINED_SPLINE.....................       0
total # of *CONSTRAINED_SPOTWELD+CONSTRAINED_RIVET.       0
total # of *CONSTRAINED_SPR2/INTERPOLATION_SPOTWELD       0
total # of *CONSTRAINED_TIE-BREAK..................       0
total # of *CONSTRAINED_TIE-NODE-FAILURE...........       0
total # of *CONTACT_option.........................       0
total # of *CONTACT_GEOMETRIC_option...............       0
total # of *CONTACT_GUIDED_CABLE...................       0
total # of *CONTACT_1D.............................       0
total # of *CONTACT_2D.............................       0
total # of *CONTACT_2D_AUTOMATIC...................       0
total # of *CONTROL_ACOUSTIC.......................       0
total # of *CONTROL_ADAPTIVITY.....................       0
total # of *CONTROL_BULK_VISCOSITY.................       0
total # of *CONTROL_CHECK..........................       0
total # of *CONTROL_CONTACT........................       0
total # of *CONTROL_COUPLING.......................       0
total # of *CONTROL_CPM............................       0
total # of *CONTROL_CPU............................       0
total # of *CONTROL_DYNAMIC_RELAXATION (DAMPING)...       0
total # of *CONTROL_EFG............................       0
total # of *CONTROL_ENERGY.........................       0
total # of *CONTROL_EXPLOSIVE_SHADOW...............       0
total # of *CONTROL_FREQUENCY_DOMAIN...............       0
total # of *CONTROL_FREQUENCY_RESPONSE_FUNCTION....       0
total # of *CONTROL_HOURGLASS......................       0
total # of *MPP_option.............................       0
total # of *CONTROL_MAT............................       0
total # of *CONTROL_NONLOCAL.......................       0
total # of *CONTROL_OUTPUT.........................       0
total # of *CONTROL_PARALLEL.......................       0
total # of *CONTROL_REFINE.........................       0
total # of *CONTROL_SHELL..........................       0
total # of *CONTROL_SOLID..........................       1
total # of *CONTROL_SOLUTION.......................       0
total # of *CONTROL_SPH............................       0
total # of *CONTROL_SUBCYCLE.......................       0
total # of *CONTROL_TERMINATION....................       1
total # of *CONTROL_THERMAL_SOLVER.................       0
total # of *CONTROL_THERMAL_TIMESTEP...............       0
total # of *CONTROL_THERMAL_NONLINEAR..............       0
total # of *CONTROL_THERMAL_EIGENVALUE.............       0
total # of *CONTROL_TIMESTEP.......................       1
total # of *CONTROL_UNITS..........................       0
total # of *CONTROL_VIBRO_ACOUSTIC.................       0
total # of *DAMPING_GLOBAL.........................       0
total # of *DAMPING_PART_MASS......................       0
total # of *DAMPING_PART_MASS_SET..................       0
total # of *DAMPING_PART_STIFFNESS.................       0
total # of *DAMPING_PART_STIFFNESS_SET.............       0
total # of *DAMPING_RELATIVE.......................       0
total # of *DAMPING_STRUCTURAL.....................       0
total # of *CONTROL_DISCRETE_SPHERE................       0
total # of *DATABASE_ABSTAT........................       0
total # of *DATABASE_ATDOUT........................       0
total # of *DATABASE_AVSFLT........................       0
total # of *DATABASE_BNDOUT........................       0
total # of *DATABASE_CPM_SENSOR....................       0
total # of *DATABASE_CURVOUT.......................       0
total # of *DATABASE_DISBOUT.......................       0
total # of *DATABASE_DCFAIL........................       0
total # of *DATABASE_DEFGEO........................       0
total # of *DATABASE_DEFORC........................       0
total # of *DATABASE_DEMASSFLOW....................       0
total # of *DATABASE_ELOUT.........................       0
total # of *DATABASE_FSI...........................       0
total # of *DATABASE_FSI_SENSOR....................       0
total # of *DATABASE_GCEOUT........................       0
total # of *DATABASE_GLSTAT........................       0
total # of *DATABASE_H3OUT.........................       0
total # of *DATABASE_JNTFORC.......................       0
total # of *DATABASE_MASSOUT.......................       0
total # of *DATABASE_MATSUM........................       0
total # of *DATABASE_MPGS.......... ...............       0
total # of *DATABASE_MOVIE.........................       0
total # of *DATABASE_NCFORC........................       0
total # of *DATABASE_NODFOR........................       0
total # of *DATABASE_NODOUT........................       0
total # of *DATABASE_PBSTAT........................       0
total # of *DATABASE_PGSTAT........................       0
total # of *DATABASE_PG_SENSOR.....................       0
total # of *DATABASE_PLLYOUT.......................       0
total # of *DATABASE_PRTUBEOUT.....................       0
total # of *DATABASE_RBDOUT........................       0
total # of *DATABASE_RCFORC_MOMENT.................       0
total # of *DATABASE_RCFORC........................       0
total # of *DATABASE_RWFORC........................       0
total # of *DATABASE_SBTOUT........................       0
total # of *DATABASE_SECFORC.......................       0
total # of *DATABASE_SLEOUT........................       0
total # of *DATABASE_SPCFORC.......................       0
total # of *DATABASE_SPH...........................       0
total # of *DATABASE_TRACER........................       0
total # of *DATABASE_TRACER_ALE....................       0
total # of *DATABASE_TRACER_GENERATE...............       0
total # of *DATABASE_SUPERPLASTIC..................       0
total # of *DATABASE_SWFORC........................       0
total # of *DATABASE_TPRINT........................       0
total # of *DATABASE_TRHIST........................       0
total # of *DATABASE_BINARY_D3PLOT.................       1
total # of *DATABASE_BINARY_D3THDT.................       0
total # of *DATABASE_BINARY_D3PART.................       0
total # of *DATABASE_BINARY_D3DRFL.................       0
total # of *DATABASE_BINARY_D3DUMP.................       0
total # of *DATABASE_BINARY_RUNRSF.................       0
total # of *DATABASE_BINARY_INTFOR.................       0
total # of *DATABASE_BINARY_FSIFOR.................       0
total # of *DATABASE_BINARY_CPMFOR.................       0
total # of *DATABASE_BINARY_PBMFOR.................       0
total # of *DATABASE_BINARY_PGFOR..................       0
total # of *DATABASE_BINARY_DEMFOR.................       0
total # of *DATABASE_BINARY_BLSTFOR................       0
total # of *DATABASE_CROSS_SECTION_option..........       0
total # of *DATABASE_EXTENT_AVS....................       0
total # of *DATABASE_EXTENT_MOVIE .................       0
total # of *DATABASE_EXTENT_MPGS...................       0
total # of *DATABASE_EXTENT_BINARY.................       0
total # of *DATABASE_EXTENT_BINARY_COMP............       0
total # of *DATABASE_EXTENT_D3PART.................       0
total # of *DATABASE_EXTENT_INTFOR.................       0
total # of *DATABASE_FREQUENCY_ASCII_option........       0
total # of *DATABASE_FREQUENCY_BINARY_D3ACC........       0
total # of *DATABASE_FREQUENCY_BINARY_D3ACS........       0
total # of *DATABASE_FREQUENCY_BINARY_D3ATV........       0
total # of *DATABASE_FREQUENCY_BINARY_D3FTG........       0
total # of *DATABASE_FREQUENCY_BINARY_D3PSD........       0
total # of *DATABASE_FREQUENCY_BINARY_D3RMS........       0
total # of *DATABASE_FREQUENCY_BINARY_D3SPCM.......       0
total # of *DATABASE_FREQUENCY_BINARY_D3SSD........       0
total # of *DATABASE_FREQUENCY_BINARY_D3ZCF........       0
total # of *DATABASE_HISTORY_NODE_option...........       0
total # of *DATABASE_HISTORY_SOLID_option..........       0
total # of *DATABASE_HISTORY_BEAM_option...........       0
total # of *DATABASE_HISTORY_SHELL_option..........       0
total # of *DATABASE_HISTORY_SPH_option............       0
total # of *DATABASE_HISTORY_TSHELL_option.........       0
total # of *DATABASE_NODAL_FORCE_GROUP.............       0
total # of *DATABASE_POWER_SPECTRAL_DENSITY........       0
total # of *DATABASE_POWER_SPECTRAL_DENSITY_FREQUE.       0
total # of *DATABASE_PWP_FLOW .....................       0
total # of *DEFINE_ADAPTIVE_SOLID_TO_DES...........       0
total # of *DEFINE_ADAPTIVE_SOLID_TO_HBOND.........       0
total # of *DEFINE_ADAPTIVE_SOLID_TO_SPH...........       0
total # of *DEFINE_BEAM_SOLID_COUPLING.............       0
total # of *DEFINE_BOX.............................       0
total # of *DEFINE_CONSTRUCTION_STAGES ............       0
total # of *DEFINE_CONTACT_EXCLUSION...............       0
total # of *DEFINE_COORDINATE_option...............       0
total # of *DEFINE_CPM_BAG_INTERACTION.............       0
total # of *DEFINE_CPM_CHAMBER.....................       0
total # of *DEFINE_CPM_GAS_PROPERTIES..............       0
total # of *DEFINE_CPM_VENT........................       0
total # of *DEFINE_CURVE...........................       1
total # of *DEFINE_CURVE_DUPLICATE.................       0
total # of *DEFINE_CURVE_ENTITY....................       0
total # of *DEFINE_CURVE_FUNCTION..................       0
total # of *DEFINE_DE_ACTIVE_REGION................       0
total # of *DEFINE_DE_INJECTION....................       0
total # of *DEFINE_DE_TO_SURFACE_COUPLING..........       0
total # of *DEFINE_DE_TO_SURFACE_EROSION...........       0
total # of *DEFINE_DE_TO_SURFACE_TIED..............       0
total # of *DEFINE_DE_TO_BEAM_COUPLING.............       0
total # of *DEFINE_DE_BOND.........................       0
total # of *DEFINE_DE_HBOND........................       0
total # of *DEFINE_DE_BY_PART......................       0
total # of *DEFINE_DE_MASSFLOW_PLANE...............       0
total # of *DEFINE_DE_COHESIVE.....................       0
total # of *DEFINE_FRACTURE........................       0
total # of *DEFINE_FRICTION........................       0
total # of *DEFINE_FUNCTION........................       0
total # of *DEFINE_GROUND_MOTION...................       0
total # of *DEFINE_PRESSURE_TUBE...................       0
total # of *ALE_STRUCTURED_MESH....................       0
total # of *SMMALE_MESH_VOLUME_FILLING.............       0
total # of *DEFINE_MULTI_SHEET_CONNECTORS..........       0
total # of *DEFINE_PLANE...........................       0
total # of *DEFINE_PBLAST_HEGEO....................       0
total # of *DEFINE_PBLAST_AIRGEO...................       0
total # of *DEFINE_SPH_ACTIVE_REGION...............       0
total # of *DEFINE_SPH_INJECTION...................       0
total # of *DEFINE_VECTOR..........................       0
total # of *DEFINE_VECTOR_NODE.....................       0
total # of *DEFINE_SD_ORIENTATION..................       0
total # of *DEFINE_ELEMENT_DEATH_SOLID.............       0
total # of *DEFINE_ELEMENT_DEATH_BEAM..............       0
total # of *DEFINE_ELEMENT_DEATH_SHELL.............       0
total # of *DEFINE_ELEMENT_DEATH_TSHELL............       0
total # of *DEFINE_PG_BAG_INTERACTION..............       0
total # of *DEFINE_PG_CHAMBER......................       0
total # of *DEFINE_PG_GAS_PROPERTIES...............       0
total # of *DEFINE_PG_VENT.........................       0
total # of *DEFINE_SHELL_ELEMENT_DEATH_THICK.......       0
total # of *DEFINE_ELEMENT_EROSION_SHELL...........       0
total # of *DEFINE_ELEMENT_EROSION_TSHELL..........       0
total # of *DEFINE_SPH_TO_SPH_COUPLING.............       0
total # of *DEFINE_SPH_DE_COUPLING.................       0
total # of *DEFINE_SPOTWELD_RUPTURE_STRESS.........       0
total # of *DEFINE_SPOTWELD_RUPTURE_PARAMETER......       0
total # of *DEFINE_STAGED_CONSTRUCTION_PART .......       0
total # of *DATABASE_BKSTAT........................       0
total # of *DEFORMABLE_TO_RIGID....................       0
total # of *DEFORMABLE_TO_RIGID_AUTOMATIC..........       0
total # of *DEFORMABLE_TO_RIGID_INERTIA............       0
total # of *ELEMENT_BEAM_option....................       0
total # of *ELEMENT_BEAM_PULLEY....................       0
total # of *ELEMENT_BEAM_SOURCE....................       0
total # of *ELEMENT_DISCRETE.......................       0
total # of *ELEMENT_MASS...........................       0
total # of *ELEMENT_MASS_PART......................       0
total # of *ELEMENT_SEATBELT.......................       0
total # of *ELEMENT_SEATBELT_ACCELEROMETER.........       0
total # of *ELEMENT_SEATBELT_PRETENSIONER..........       0
total # of *ELEMENT_SEATBELT_RETRACTOR.............       0
total # of *ELEMENT_SEATBELT_SENSOR................       0
total # of *ELEMENT_SEATBELT_SLIPRING..............       0
total # of *ELEMENT_SHELL_option...................       0
total # of *ELEMENT_SHELL_NURBS_PATCH..............       0
total # of *ELEMENT_SOLID..........................    2440
total # of *ELEMENT_SOLID_NURBS_PATCH..............       0
total # of *ELEMENT_SPH............................       0
total # of *ELEMENT_TSHELL_option..................       0
total # of *ELEMENT_INERTIA........................       0
total # of *MODULE_LOAD............................       0
total # of *MODULE_USE.............................       0
total # of *SENSOR_SWITCH_SHELL_TO_VENT............       0
total # of *SENSOR_CPM_AIRBAG......................       0
total # of *PG_SWITCH_SHELL_TO_VENT................       0
total # of *EM_2DAXI...............................       0
total # of *EM_BOUNDARY............................       0
total # of *EM_CIRCUIT.............................       0
total # of *EM_CIRCUIT_CONNECT.....................       0
total # of *EM_CIRCUIT_RANDLE......................       0
total # of *EM_CIRCUIT_ROGO........................       0
total # of *EM_CONTACT.............................       0
total # of *EM_CONTACT_RESISTANCE..................       0
total # of *EM_CONTROL.............................       0
total # of *EM_CONTROL_CONTACT.....................       0
total # of *EM_CONTROL_SWITCH......................       0
total # of *EM_CONTROL_SWITCH_CONTACT..............       0
total # of *EM_CONTROL_TIMESTEP....................       0
total # of *EM_DATABASE_CIRCUIT....................       0
total # of *EM_DATABASE_CIRCUIT0D..................       0
total # of *EM_DATABASE_ELOUT......................       0
total # of *EM_DATABASE_FIELDINE...................       0
total # of *EM_DATABASE_GLOBALENERGY...............       0
total # of *EM_DATABASE_NODOUT.....................       0
total # of *EM_DATABASE_PARTDATA...................       0
total # of *EM_DATABASE_POINTOUT...................       0
total # of *EM_DATABASE_ROGO.......................       0
total # of *EM_DATABASE_TIMESTEP...................       0
total # of *EM_EOS_BURGESS.........................       0
total # of *EM_EOS_MEADON..........................       0
total # of *EM_EOS_PERMEABILITY....................       0
total # of *EM_EOS_TABULATED1......................       0
total # of *EM_EOS_TABULATED2......................       0
total # of *EM_EXTERNAL_FIELD......................       0
total # of *EM_ISOPOTENTIAL........................       0
total # of *EM_ISOPOTENTIAL_CONNECT................       0
total # of *EM_MAT_001.............................       0
total # of *EM_MAT_002.............................       0
total # of *EM_MAT_003.............................       0
total # of *EM_MAT_004.............................       0
total # of *EM_POINT_SET...........................       0
total # of *EM_OUTPUT..............................       0
total # of *EM_ROTATION_AXIS.......................       0
total # of *EM_SOLVER_BEM..........................       0
total # of *EM_SOLVER_BEMMAT.......................       0
total # of *EM_SOLVER_FEM..........................       0
total # of *EM_SOLVER_FEMBEM.......................       0
total # of *EM_VOLTAGE_DROP........................       0
total # of *EOS_option.............................       0
total # of *FATIGUE................................       0
total # of *FATIGUE_MEAN_STRESS_CORRECTION.........       0
total # of *FREQUENCY_DOMAIN_ACCELERATION_UNIT.....       0
total # of *FREQUENCY_DOMAIN_ACOUSTIC_BEM..........       0
total # of *FREQUENCY_DOMAIN_ACOUSTIC_FEM..........       0
total # of *FREQUENCY_DOMAIN_ACOUSTIC_FRINGE_PLOT..       0
total # of *FREQUENCY_DOMAIN_ACOUSTIC_INCIDENT_WAVE       0
total # of *FREQUENCY_DOMAIN_ACOUSTIC_SOUND_SPEED..       0
total # of *FREQUENCY_DOMAIN_FRF...................       0
total # of *FREQUENCY_DOMAIN_MODE..................       0
total # of *FREQUENCY_DOMAIN_PATH..................       0
total # of *FREQUENCY_DOMAIN_RANDOM_VIBRATION......       0
total # of *FREQUENCY_DOMAIN_RESPONSE_SPECTRUM.....       0
total # of *FREQUENCY_DOMAIN_SEA...................       0
total # of *FREQUENCY_DOMAIN_SEA_CONNECTION........       0
total # of *FREQUENCY_DOMAIN_SEA_INPUTPOWER........       0
total # of *FREQUENCY_DOMAIN_SEA_SUBSYSTEM.........       0
total # of *FREQUENCY_DOMAIN_SSD...................       0
total # of *FV_MESHES..............................       0
total # of *FV_FSI.................................       0
total # of *HOURGLASS..............................       0
total # of *ICFD_BOUNDARY_CONJ_HEAT................       0
total # of *ICFD_BOUNDARY_FLOWRATE.................       0
total # of *ICFD_BOUNDARY_FLUX_TEMP................       0
total # of *ICFD_BOUNDARY_FREESLIP.................       0
total # of *ICFD_BOUNDARY_FSI......................       0
total # of *ICFD_BOUNDARY_FSWAVE...................       0
total # of *ICFD_BOUNDARY_GROUND...................       0
total # of *ICFD_BOUNDARY_NONSLIP..................       0
total # of *ICFD_BOUNDARY_PERIODIC.................       0
total # of *ICFD_BOUNDARY_PRESCRIBED_MOVEMESH......       0
total # of *ICFD_BOUNDARY_PRESCRIBED_PRE...........       0
total # of *ICFD_BOUNDARY_PRESCRIBED_TEMP..........       0
total # of *ICFD_BOUNDARY_PRESCRIBED_TURBULENCE....       0
total # of *ICFD_BOUNDARY_PRESCRIBED_VEL...........       0
total # of *ICFD_BOUNDARY_WINDKESSEL...............       0
total # of *ICFD_CONTROL_ADAPT.....................       0
total # of *ICFD_CONTROL_ADAPT_SIZE................       0
total # of *ICFD_CONTROL_ADVECTION.................       0
total # of *ICFD_CONTROL_CONJ......................       0
total # of *ICFD_CONTROL_CONVERGENCE...............       0
total # of *ICFD_CONTROL_DEM_COUPLING..............       0
total # of *ICFD_CONTROL_EMBEDSHELL................       0
total # of *ICFD_CONTROL_FSI.......................       0
total # of *ICFD_CONTROL_FREESURF..................       0
total # of *ICFD_CONTROL_GENERAL...................       0
total # of *ICFD_CONTROL_IMPOSED_MOVE..............       0
total # of *ICFD_CONTROL_LOAD......................       0
total # of *ICFD_CONTROL_MEMCHECK..................       0
total # of *ICFD_CONTROL_MESH......................       0
total # of *ICFD_CONTROL_MESH_MOV..................       0
total # of *ICFD_CONTROL_OUTPUT....................       0
total # of *ICFD_CONTROL_OUTPUT_SUBDOM.............       0
total # of *ICFD_CONTROL_PARTITION.................       0
total # of *ICFD_CONTROL_PERIODIC..................       0
total # of *ICFD_CONTROL_POROUS....................       0
total # of *ICFD_CONTROL_RANS......................       0
total # of *ICFD_CONTROL_STEADY....................       0
total # of *ICFD_CONTROL_SURFMESH..................       0
total # of *ICFD_CONTROL_TAVERAGE..................       0
total # of *ICFD_CONTROL_TIME......................       0
total # of *ICFD_CONTROL_TRANSIENT.................       0
total # of *ICFD_CONTROL_TURBULENCE................       0
total # of *ICFD_CONTROL_TURB_SYNTHESIS............       0
total # of *ICFD_DATABASE_AVERAGE..................       0
total # of *ICFD_DATABASE_DRAG.....................       0
total # of *ICFD_DATABASE_FLUX.....................       0
total # of *ICFD_DATABASE_HTC......................       0
total # of *ICFD_DATABASE_NODEAVG..................       0
total # of *ICFD_DATABASE_NODOUT...................       0
total # of *ICFD_DATABASE_POINTAVG.................       0
total # of *ICFD_DATABASE_POINTOUT.................       0
total # of *ICFD_DATABASE_RESIDUALS................       0
total # of *ICFD_DATABASE_TEMP.....................       0
total # of *ICFD_DATABASE_TIMESTEP.................       0
total # of *ICFD_DATABASE_UINDEX...................       0
total # of *ICFD_DEFINE_HEATSOURCE.................       0
total # of *ICFD_DEFINE_POINT......................       0
total # of *ICFD_DEFINE_NONINERTIAL................       0
total # of *ICFD_DEFINE_WAVE_DAMPING...............       0
total # of *ICFD_INITIAL...........................       0
total # of *ICFD_INITIAL_LEVELSET..................       0
total # of *ICFD_INITIAL_TURBULENCE................       0
total # of *ICFD_MAT...............................       0
total # of *ICFD_MODEL_NONNEWT.....................       0
total # of *ICFD_MODEL_POROUS......................       0
total # of *ICFD_PART..............................       0
total # of *ICFD_PART_VOL..........................       0
total # of *ICFD_SECTION...........................       0
total # of *ICFD_SET_NODE..........................       0
total # of *ICFD_SOLVER_SPLIT......................       0
total # of *ICFD_SOLVER_TOL_LSET...................       0
total # of *ICFD_SOLVER_TOL_MMOV...................       0
total # of *ICFD_SOLVER_TOL_MOM....................       0
total # of *ICFD_SOLVER_TOL_MONOLITHIC.............       0
total # of *ICFD_SOLVER_TOL_PRE....................       0
total # of *ICFD_SOLVER_TOL_TEMP...................       0
total # of *ICFD_SOLVER_TOL_TURBULENCE.............       0
total # of *INITIAL_AIRBAG_PARTICLE_POSITION.......       0
total # of *INITIAL_AXIAL_FORCE_BEAM...............       0
total # of *INITIAL_CRASHFRONT.....................       0
total # of *INITIAL_DETONATION.....................       0
total # of *INITIAL_FATIGUE_DAMAGE_RATIO...........       0
total # of *INITIAL_FIELD_SOLID....................       0
total # of *INITIAL_IMPULSE_MINE...................       0
total # of *INITIAL_MOMENTUM.......................       0
total # of *INITIAL_PWP_DEPTH .....................       0
total # of *INITIAL_STRAIN_SHELL...................       0
total # of *INITIAL_STRAIN_SHELL_SET...............       0
total # of *INITIAL_STRAIN_SHELL_NURBS_PATCH.......       0
total # of *INITIAL_STRAIN_SOLID...................       0
total # of *INITIAL_STRAIN_SOLID_NURBS_PATCH.......       0
total # of *INITIAL_STRAIN_TSHELL..................       0
total # of *INITIAL_STRESS_BEAM....................       0
total # of *INITIAL_STRESS_DEPTH ..................       0
total # of *INITIAL_STRESS_SECTION.................       0
total # of *INITIAL_STRESS_SHELL...................       0
total # of *INITIAL_STRESS_SHELL_SET...............       0
total # of *INITIAL_STRESS_SHELL_NURBS_PATCH.......       0
total # of *INITIAL_STRESS_SOLID...................       0
total # of *INITIAL_STRESS_SOLID_SET...............       0
total # of *INITIAL_STRESS_SOLID_NURBS_PATCH.......       0
total # of *INITIAL_STRESS_SPH.....................       0
total # of *INITIAL_STRESS_TSHELL..................       0
total # of *INITIAL_TEMPERATURE_SET................       0
total # of *INITIAL_TEMPERATURE_NODE...............       0
total # of *INITIAL_VELOCITY.......................       0
total # of *INITIAL_VELOCITY_NODE..................       0
total # of *INITIAL_VELOCITY_RIGID_BODY............       0
total # of *INITIAL_VOID_PART......................       0
total # of *INITIAL_VOID_SET.......................       0
total # of *INITIAL_VOLUME_FRACTION_GEOMETRY.......       0
total # of *INITIAL_HYDROSTATIC_ALE................       0
total # of *INITIAL_EOS_ALE........................       0
total # of *INITIAL_VAPOR_PART.....................       0
total # of *INITIAL_ALE_MAPPING....................       0
total # of *INITIAL_LAG_MAPPING....................       0
total # of *INITIAL_SOLID_VOLUME...................       0
total # of *INTEGRATION_BEAM.......................       0
total # of *INTEGRATION_SHELL......................       0
total # of *INTERFACE_COMPONENT_option.............       0
total # of *INTERFACE_DE_HBOND.....................       0
total # of *INTERFACE_LINKING_DISCRETE_NODE........       0
total # of *INTERFACE_LINKING_DISCRETE_NODE_SET....       0
total # of *INTERFACE_LINKING_EDGE.................       0
total # of *INTERFACE_LINKING_SEGMENT..............       0
total # of *INTERFACE_SPRINGBACK...................       0
total # of *INTERFACE_SSI_AUXILIARY_FREE_FIELD.....       0
total # of *INTERFACE_SSI_STATIC...................       0
total # of *INTERFACE_SSI..........................       0
total # of *LOAD_ALE_CONVECTION ...................       0
total # of *LOAD_AIR_PRESSURE......................       0
total # of *LOAD_BEAM..............................       0
total # of *LOAD_BEAM_SET..........................       0
total # of *LOAD_BODY_GENERALIZED..................       0
total # of *LOAD_BODY_POROUS.......................       0
total # of *LOAD_BODY_RX...........................       0
total # of *LOAD_BODY_RY...........................       0
total # of *LOAD_BODY_RZ...........................       0
total # of *LOAD_BODY_X............................       0
total # of *LOAD_BODY_Y............................       0
total # of *LOAD_BODY_Z............................       0
total # of *LOAD_BRODE.............................       0
total # of *LOAD_BLAST.............................       0
total # of *LOAD_BLAST_ENHANCED....................       0
total # of *LOAD_BLAST_SEGMENT.....................       0
total # of *LOAD_BLAST_SEGMENT_SET.................       0
total # of *LOAD_DENSITY_DEPTH ....................       0
total # of *LOAD_GRAVITY_PART .....................       0
total # of *LOAD_HEAT_CONTROLLER ..................       0
total # of *LOAD_HEAT_GENERATION_SET...............       0
total # of *LOAD_HEAT_GENERATION_SOLID.............       0
total # of *LOAD_HEAT_GENERATION_SET_SHELL.........       0
total # of *LOAD_HEAT_GENERATION_SHELL.............       0
total # of *LOAD_NODE..............................       0
total # of *LOAD_NODE_SET..........................       1
total # of *LOAD_NSG...............................       0
total # of *LOAD_REMOVE_PART ......................       0
total # of *LOAD_SEGMENT...........................       0
total # of *LOAD_SEGMENT_FSILNK....................       0
total # of *LOAD_SEGMENT_NONUNIFORM................       0
total # of *LOAD_SEGMENT_SET.......................       0
total # of *LOAD_SEGMENT_SET_NONUNIFORM............       0
total # of *LOAD_SEISMIC_SSI_NODE..................       0
total # of *LOAD_SEISMIC_SSI_SET...................       0
total # of *LOAD_SEISMIC_SSI_POINT.................       0
total # of *LOAD_SEISMIC_SSI_DECONV................       0
total # of *LOAD_SHELL.............................       0
total # of *LOAD_SHELL_SET.........................       0
total # of *LOAD_STIFFEN_PART .....................       0
total # of *LOAD_SUPERPLASTIC_FORMING..............       0
total # of *LOAD_SURFACE_STRESS....................       0
total # of *LOAD_THERMAL_option_ELEMENT............       0
total # of *LOAD_THERMAL_option_NODE...............       0
total # of *LOAD_THERMAL_option....................       0
total # of *LOAD_THERMAL_LOAD_CURVE................       0
total # of *LOAD_THERMAL_TOPAZ ....................       0
total # of *LOAD_THERMAL_VARIABLE_SHELL_option.....       0
total # of *LOAD_THERMAL_VARIABLE_BEAM _option.....       0
total # of *LOAD_VIBRO_ACOUSTIC....................       0
total # of *LOAD_VOLUME_LOSS ......................       0
total # of *LSO_DOMAIN.............................       0
total # of *LSO_ID_SET.............................       0
total # of *LSO_POINT_SET..........................       0
total # of *LSO_REGION.............................       0
total # of *LSO_TIME_SEQUENCE......................       0
total # of *LSO_VARIABLE_GROUP.....................       0
total # of *MAT_option.............................       1
total # of *MAT_THERMAL_option.....................       0
total # of *MAT_NONLOCAL...........................       0
total # of *MESH_BL................................       0
total # of *MESH_BL_SYM............................       0
total # of *MESH_EMBEDSHELL........................       0
total # of *MESH_INTERF............................       0
total # of *MESH_SIZE..............................       0
total # of *MESH_SIZE_SHAPE........................       0
total # of *MESH_SURFACE_ELEMENT...................       0
total # of *MESH_SURFACE_NODE......................       0
total # of *MESH_VOLUME............................       0
total # of *MESH_VOLUME_ELEMENT....................       0
total # of *MESH_VOLUME_NODE.......................       0
total # of *MESH_VOLUME_PART.......................       0
total # of *NODE...................................     735
total # of *NODE_MERGE.............................       0
total # of *NODE_MERGE_TOLERANCE...................       0
total # of *PART_option card.......................       2
total # of *PART_ANNEAL_option.....................       0
total # of *PARTICLE_BLAST.........................       0
total # of *PARTICLE_GENERAL.......................       0
total # of *RIGIDWALL_option.......................       0
total # of *SECTION_option.........................       1
total # of *SET_2D_SEGMENT.........................       0
total # of *SET_BEAM...............................       0
total # of *SET_BOX ...............................       0
total # of *SET_DISCRETE...........................       0
total # of *SET_MODE...............................       0
total # of *SET_NODE_option........................       4
total # of *SET_PART...............................       0
total # of *SET_POINT..............................       0
total # of *SET_SEGMENT............................       0
total # of *SET_SHELL_option.......................       0
total # of *SET_SOLID..............................       0
total # of *SET_TSHELL.............................       0
total # of *STOCHASTIC_SPRAY_PARTICLES.............       0
total # of *STOCHASTIC_TBX_PARTICLES...............       0
total # of *TERMINATION_BODY.......................       0
total # of *TERMINATION_DELETED_SHELLS.............       0
total # of *TERMINATION_DELETED_SOLIDS.............       0
total # of *TERMINATION_NODE.......................       0
total # of *TERMINATION_CONTACT....................       0
total # of *TITLE..................................       0
total # of *USER_INTERFACE_CONTROL.................       0
total # of *USER_INTERFACE_FRICTION................       0
total # of *USER_INTERFACE_FORCES..................       0
total # of *USER_INTERFACE_CONDUCTIVITY............       0
total # of *USER_LOAD..............................       0
total # of *USER_NONLOCAL_SEARCH...................       0
total # of *USER_PARAMETER.........................       0
total # of *CHANGE_BOUNDARY_CONDITIONS.............       0
total # of *CHANGE_CONTACT_SMALL_PENETRATION.......       0
total # of *CHANGE_RIGID_BODY_CONSTRAINTS..........       0
total # of *CHANGE_RIGID_BODY_INERTIA..............       0
total # of *CHANGE_THERMAL_PARAMETERS..............       0
total # of *CHANGE_VELOCITY_ZERO...................       0
total # of *CHANGE_VELOCITY_RIGID_BODY.............       0
total # of *DELETE_ALECPL..........................       0
total # of *DELETE_CONTACT.........................       0
total # of *DELETE_CONTACT_2DAUTO..................       0
total # of *DELETE_FSI.............................       0
total # of *DELETE_ENTITY..........................       0
total # of *DELETE_ELEMENT_SOLID...................       0
total # of *DELETE_ELEMENT_BEAM....................       0
total # of *DELETE_ELEMENT_SHELL...................       0
total # of *DELETE_ELEMENT_TSHELL..................       0
total # of *DELETE_PART............................       0
total # of *RIGID_DEFORMABLE_CONTROL...............       0
total # of *RIGID_DEFORMABLE_D2R...................       0
total # of *RIGID_DEFORMABLE_R2D...................       0
total # of *STRESS_INITIALIZATION..................       0
 
 *** Warning 10177 (KEY+177)
     nodal rigid body and part share the same ID 1

 Memory required to process keyword     :      647703 

 LS-DYNA will perform a structural only analysis 



                                                                         
            code input version =1993
            formats            =mlarg



 c o n t r o l   i n f o r m a t i o n

    CONTROL CARD 1. Model Size-General

    number of materials or property sets...........       2

    number of nodal+scalar points..................     735

    number of merged nodal points..................       0

    number of solid elements.......................    2440

    number of beam elements........................       0

    number of shell elements.......................       0

    number of thick shell elements.................       0

    number of user defined material subroutines....       0

    number of material groups tied to solids.......       0

    number of tracer particles.....................       0

    number of super elements.......................       0

    number of solid tetrahedrons with 10 nodes.....       0

    number of quadratic shell elements.............       0

    number of shells with extra degrees of freedom.       0

    number of solids with extra degrees of freedom.       0

    number of user defined sections................       0

    activate sensor capability (inactive=0)........       0

    number of user defined solid element types.....       0

    number of solid interpolation elements.........       0

    number of user defined shell element types.....       0

    number of shell interpolation elements.........       0

    number of constrained nodes for interpolation..       0

    consistent mass matrix for user-def elements...       0

    number of shell nurbs patches..................       0

    number of solid nurbs patches..................       0


    CONTROL CARD 2. Model Size-Boundary Conditions

    number of spc nodes............................      99

    number of spc coordinates......................       0

    number of velocity cards.......................       0

    number of non-reflecting boundary segments.....       0

    number of b. c. cards..........................       0

    number of b. c. cards with failure.............       0

    number of box definition for b. c. card........       0

    number of nodes/interface for cyclic symmetry..       0

    number of rigid bodies with attachment nodes...       0


    CONTROL CARD 3. Model Size-Loading

    number of load curves..........................       1

    number of nodes for load curve functions.......       0

    number of curves for entities..................       0

    number of concentrated load cards..............      33

    number of pressure load cards..................       0

    number of nonuniform pressure loads-4 nodes....       0

    number of nonuniform pressure loads-6 nodes....       0

    number of nonuniform pressure loads-8 nodes....       0

    number of generalized body force sets..........       0

    number of beam pressure card definitions.......       0

    number of detonation points....................       0

    number of zones for momentum deposition........       0

    number of points in density vs. depth curve....       0

    number of outflow boundary segments............       0

    number of load curve feedback sets.............       0

    number of pressure load sets with masks........       0

    number of spray systems .......................       0

    number of initial stress by cross-sections sets       0

    number of pressure load sets...................       0

    number of ground motion definitions............       0

    number of ground motions specified at nodes....       0

    number of ground motions specified at points...       0

    number of ground motions specified in bin file.       0

    number of segsets with specified ground motion.       0

    number of soil-structure interfaces for output.       0

    number of aero-acoustic load cards.............       0

    number of delayed curve........................       0

    number of pid controller.......................       0


    CONTROL CARD 4. Model Size-Constraints and Contact

    number of rigid wall definitions...............       0

    number of number of contact definitions........       0

    number of number of guided cable contacts......       0

    number of shell-solid interfaces...............       0

    number of tie-breaking slide lines.............       0

    number of blocks of tied nodes with fracture ..       0

    number of tied nodal pairs for linking.........       0

    number of constraint cards.....................       0

    number of linear constraint equations..........       0

    number of 1d slidelines........................       0

    number of adaptive constraints.................       0

    number of ALE smoothing constraints............       0

    number of 2d slidelines........................       0

    number of 2d automatic contacts................       0

    number of part IDs for interior contact........       0

    number of beam release sets....................       0

    max. number of nodes in any beam release set...       0


    CONTROL CARD 5. Model Size-Rigid Body Parameters

    number of rigid body constraint sets...........       1

    number of rigid body merge cards...............       0

    number of joint constraints....................       0

    number of joint failure definitions............       0

    number of joint user force definitions.........       0

    number of extra node blocks....................       0

    number of rigid body inertia definitions.......       0

    number of geometric contact entities...........       0

    number of joint stiffness definitions..........       0

    number of rigid body stoppers..................       0

    joint formulation for rigid bodies.............       0
          eq.0:  penalty                                 
          eq.1:  lagrange multiplier                     

    generalized stiffness angle update ............       0
          eq.0:  incremental formulation                 
          eq.1:  total formulation                       

    number of flexible bodies......................       0
          lt.0:  stress recovery active                  

    number of relative damping definitions.........       0

    flag for reading rigid surface contact input...       0
          eq.0:  no rigid surface contact                 
          eq.1:  read rigid surface input                

    number of Hybrid III dummies ..................       0

    number of Hybrid III joint modifications ......       0

    number of interpolation constraints ...........       0

    flag for metalforming fast rigid bodies........       0
          eq.0:  full rigid body treatment               
          eq.1:  fast rigid body treatment               

    number of prescribed rigid body orientations          0


    CONTROL CARD 6. Model Size-Discrete Elements & Seat Belts

    number of spring-damper material types.........       0

    number of local coordinate systems.............       0

    number of discrete springs and dampers.........       0

    number of lumped masses........................       0

    number of parts with added mass................       0

    number of nodes with mass matrix...............       0

    number of seat belt materials..................       0

    number of seat belt elements...................       0

    number of 2d seat belt elements................       0

    number of slip rings...........................       0

    number of retractors...........................       0

    number of sensors..............................       0

    number of pretensioners........................       0

    number of accelerometers.......................       0

    number of discrete rotary inertias.............       0

    number of SPH particles........................       0

    number of groups of SPH particles..............       0


    CONTROL CARD 7. Model Size-Output Control

    number of cross section definitions............       0

    number of nodal groups for resultant forces....       0

    number of interface segments for linking.......       0

    max. number of segments defining rigid wall....       0

    number of power spectrum density databases.....       0


    CONTROL CARD 8. Computation Options-Termination

    termination time...............................    0.1000E-02

    termination cycle..............................       0

    reduction factor for minimum time step (TSMIN).    0.0000E+00

    percent change in energy ratio for termination.    0.0000E+00

    percent change in total mass for termination...    0.0000E+00

    number of nodes for displacement termination...       0

    number of rigid bodies for disp. termination...       0

    number of conditions for contact termination...       0

    number of conditions for ldcurve termination...       0

    ID of sensor_switch  for sensor  termination... 0


    CONTROL CARD 8a. Computation Options-Start      

    start time.....................................    0.0000E+00


    CONTROL CARD 9. Computation Options-Time Step Size 

    initial time step size.........................    0.0000E+00

    time step scale factor.........................    0.9000E+00

    time step size calculation for 4-node shells...       0
          eq.0:  based on longest element side          
          eq.1:  based on longest element diagonal      
          eq.2:  based on bar wave speed max side       
          eq.3:  based on optimal time step size        
                 estimator                              

    shell element minimum time step assignment.....    0.0000E+00

    time step size for mass scaled solution, dt2ms.    0.0000E+00
          lt.0:  minimum time step size permitted       

    load curve number for maximum timestep.........       0

    erosion flag for solid and thick shells........       0
          eq.0:  no                                      
          eq.1:  yes                                     

    option part set ID for eroding solids.......... 0
          eq.0:  all solids are checked if eros_flag=1   
          gt.0:  solids within part set are checked      

    limit mass scaling to the first time step......       0
          eq.0:  no                                      
          eq.1:  yes                                     

    scale factor on initial dt to determine dt2ms..    0.0000E+00

    load curve ID for mass scaling ................ 0

    flag for selective mass scaling................       0
          eq.0:  off                                     
          eq.1:  on                                      
          eq.2:  on for part subset                      

    consistent constraint logical switch...........       F

    flag for part set for erosion .................       0
          eq.0:  no                                      
          eq.1:  yes                                     

    flag for accounting for rotations in sms.......    0.0000E+00
          eq.0.:  off (default)                           
          gt.0.:  on                                      
    implicit_explicit_hybrid part set..............       0



    CONTROL CARD 10. Computation Options-Loading

    x-ground acceleration..........................       0
          eq.0:  no                                      
          eq.1:  yes                                     

    y-ground acceleration..........................       0
          eq.0:  no                                      
          eq.1:  yes                                     

    z-ground acceleration..........................       0
          eq.0:  no                                      
          eq.1:  yes                                     

    x-angular velocity.............................       0
          eq.0:  no                                      
          eq.1:  yes                                     

    y-angular velocity.............................       0
          eq.0:  no                                      
          eq.1:  yes                                     

    z-angular velocity.............................       0
          eq.0:  no                                      
          eq.1:  yes                                     

    number of materials receiving body forces......       0
          eq.0:  all                                     
          eq.n:  subset of n materials                   

    flag for user defined loading subroutine.......       0
          lt.0:  magnitude=# of input constants          
          eq.0:  no                                      
          eq.1:  yes, but no additional input            

    explosive initiation option....................       0
          eq.0:  lighting times based on distance        
          eq.1:  lighting times include geometric        
                 effects for wave shapers, etc.          

    sub-sea structural analysis option.............       0
          eq.0:  off                                     
          eq.1:  on with 1 point integration             
          eq.4:  on with 4 point integration             
    contact pressure calculation option............       0
          eq.0:  off (default)                           
          eq.1:  on                                      
    # of user defined loading set..................       0


    CONTROL CARD 11. Computation Options-Input Control

    initialization of velocities...................       0
          eq.0: velocities are initialized to zero       
          eq.1: initial velocities are read in           
          eq.2: all velocities have same input value     
          eq.3: as 2 but exempted nodes are defined      
          eq.4: box option                               
          eq.5: generation with arbitrary numbering      
          eq.6: rotational and translational via IDs     
          eq.7: option 6 but applied during calculation  

    time to apply initial velocites (option 7).....    0.0000E+00

    arbitrary node and element numbering flag .....       1

    constitute, eqs-of-state, cross-section option.       0
          eq.0:  off                                     
          eq.1:  separate input is required for each     

    specified nodal coordinate format..............    e20.0

    flag for thermodynamic control volume input....       0

    overpressure option (eq.0 no,  eq.1 yes).......       0

    number of part (de) activation sensors.........       0

    number of rigid body initial velocity sets.....       0

    jacobian tolerance for type 16 tetrahedron.....    0.0000E+00

    flag to check for NaN in force/moment arrays...       0

    load curve accuracy flag.......................       0

    cycles between evaluation of curve functions...       1


    CONTROL CARD 12. Computation Options-Elements  

    warped shell angle in deg. for error message...    0.2000E+02

    iterative plane stress plasticity for shells...       1
          eq.1:  vectorized with three iterates         
          eq.2:  nonvectorized iterations as needed     
          eq.3:  noniterative radial return             

    Calculation option for F for solid elements....       0
          eq.0:  default, explicit=1, implicit=2        
          eq.1:  integrate incrementally                
          eq.2:  compute directly                       

    flag for automatic sorting ....................      10
          eq. 1:  on for triangular shells              
          eq.11:  on for triangular shells and solids   
          eq.10:  on for solids (tets and pentas)       

    formulation for sorted degenerate tet/pent.....       1
          eq. 0:  no sorting required(default)           
          eq. 1:  type 10 tet & type 15 pent             
          eq. 2:  type 10 tet, 1pt pent to type 15 pent, 
                  fully intg pent to type 115 pent       
          eq. 3:  same as 1 & switch elem in messag file 
          eq. 4:  same as 2 & switch elem in messag file 

    formulation for sorted trianglar shells .......       0
          eq. 0:  no sorting required(default)           
          eq. 1:  C0 triangle, type  4                   
          eq. 2:  DKT triangle type 17                   

    hughes-liu normal computation options..........      -1
          eq.-2: unique nodal fibers                    
          eq.-1: compute normals each cycle
          eq.0 : default set to -1     
          eq.1 : compute on restart
          eq.n : compute on restart + each nth cycle     

    consistent tangent for type 13 solid...........       0
          eq.0 : no, recommended for nonlinear implicit 
          eq.1 : yes, may improve linear response       

    thickness modification for membrane strains....       0
          eq.0:  no                                     
          eq.1:  4-node shell only                      
          eq.2:  8-node thick shell types 1 & 2         
          eq.3:  update both 4 & 8 node thickness       
          eq.4:  same as option 1 but the elastic       
                 strains are neglected                  

    shell part set ID (pids) for thickness update.  0
          lt.0: exclude pids if update option is active  
          eq.0: include  all if update option is active  
          gt.0: include pids if update option is active  

    shell part set ID where type 4 update applies   0

    shell formulation basis........................ 2
          eq.   1: hughes-liu                            
          eq.   2: belytschko-tsay                       
          eq.   3: bciz                                  
          eq.   4: c0-triangular element                 
          eq.   5: membrane element                      
          eq.   6: s/r hughes-liu                        
          eq.   7: s/r co-rotational hughes-liu          
          eq.   8: belytschko-leviathan shell            
          eq.   9: fully integrated membrane             
          eq.  10: belytschko-wong-chiang                
          eq.  11: fast hughes-liu                       
          eq.  12: 2d plane stress                       
          eq.  13: 2d plane strain                       
          eq.  14: 2d axisymmetric  (area wgt)           
          eq.  15: 2d axisymmetric  (volume wgt)         
          eq.  16: fully integrated element              
          eq.  17: dkt element                           
          eq.  18: dkq-dkt linear element                
          eq.  20: assumed strain linear element         
          eq.  21: assumed strain linear element(5DOF)   
          eq.  22: linear shear panel element(3DOF)      
          eq.  23: 8-node quadratic quadrilateral shell  
          eq.  24: 6-node quadratic triangular shell     
          eq.  25: belytschko-tsay with                  
                   thickness stretch                     
          eq.  26: fully integrated element with         
                   thickness stretch                     
          eq.  27: c0-triangular element with            
                   thickness stretch                     
          eq.  29: cohesive element for shell            
                   edge-to-edge connections              
          eq. -29: cohesive element with midlayer        
                   coordinate system for pure shear      
          eq.  31: 2-d 1-pt. eulerian n-s                
          eq.  32: 2-d 4-pt. eulerian n-s                
          eq.  33: 2-d cvfem eulerian n-s                
          eq.  41: meshfree shell local projection       
          eq.  42: meshfree shell global projection      
          eq.  43: meshfree plane strain                 
          eq.  44: meshfree axisymmetric solid           
          eq.  46: cohesive element compatible with 2d   
                   plane stress, plane strain, or        
                   area-weighted axisymmetric elements   
          eq.  47: cohesive element compatible with 2d   
                   volume-weighted axisymmetric elements 
          eq.  98: interpolation shell element           
          eq.  99: elastic vibration element             
          eq. 201: isogeometric nurbs element            
          ge.1000: user defined (generalized) shell      

    # of user specified beam integration rules.....       0
    max number of integration points reqd (beams) .       0
    # of user specified shell integration rules....       0
    max number of integration points reqd (shells).       0
    warping stiffness for Belytschko-Tsay shells...       2
          eq.1:  Belytschko-Wong-Chiang modification    
          eq.2:  original Belytschko-Tsay               

    projection method for warping stiffness........       0
          eq.0:  drill                                   
          eq.1:  full                                    

    reference configuration .......................       0
          eq. 0:  no                                      
          eq. 1:  yes, active for all airbags             
          eq. 2:  yes, reference geometry Dt              
          eq.10:  yes, active for foam elements           
          eq.11:  options 1 and 10 active                 
          eq.12:  options 2 and 10 active                 

    contact reference configuration ...............       0
          eq. 0:  no                                      
          eq. n:  n number of reference nodes             

    invariant node numbering ......................       0
          eq.-4  on for both shell and solid elements   
                 except triangular shells               
          eq.-2  on for shell elements except           
                 triangular shells                      
          eq. 1  off (default)                          
          eq. 2  on for all shell elements              
          eq. 3  on for solid elements with             
                 anisotropic material                   
          eq. 4  on for all shell elements and solid    
                 elements with anisotropic material     

    activation time for reference geometry ........    0.0000E+00

    scale factor for shell rotary mass ............    0.1000E+01

    integration for shell through thickness .......       0
          eq.0:  Gauss                                   
          eq.1:  Lobatto                                 

    use laminated shell theory for material .......       0
    types 22, 54, 55, and 76:                      
          eq.0:  no                                      
          eq.1:  yes for thin shell material types       
                 22, 54, 55, or 76                       
          eq.3:  yes for all thin shell anisotropic      
                 materials or mixed materials            
          eq.4:  yes for all thick shell anisotropic     
                 materials or mixed materials            
          eq.5:  yes for thick and thin shells           

    number of annealed parts .......................       0

    number of new part IDs for COMPOSITE option.....       0

    flag for shell offset vectors .................       0
          eq. 0:  off                                   
          eq. 1:  on                                    

    flag for offset shell contact surface .........       0
          eq. 0:  off                                   
          eq. 1:  on                                    
          eq. 2:  on, but use contact thickness         

    number of point constraints between shells ....       0

    flag for input of beam orientation vectors ....       0

    flag for input of beam offset vectors .........       0

    flag for input of beam warpage scalar nodes....       0

    flag for 12-node shell for thermal ............       0

    local shell coordinate system in type 6 shell..       1
          eq. 0:  uniform local coordinate system       
          eq. 1:  variable local coordinate system      

    Jacobian check on 1 point shells...............       0
          eq. 0:  off                                   
          eq. 1:  on -delete distorted element          
          eq. 2:  on -terminate                         
          eq. n:  terminate when n elements are deleted 

    Jacobian check on 4 point shells...............       0
          eq. 0:  off                                   
          eq. 1:  on -delete distorted element          
          eq. 2:  on -terminate                         
          eq. n:  terminate when n elements are deleted 

    part set ID for Jacobian checks................ 0

    keep contact segment related to failed shell...       0
          eq. 0:  off                                   
          eq. 1:  on                                    
    delete free-free shells in Jacobian checks.....       0
          eq. 0:  off                                   
          eq. 1:  on                                    

    part set ID for drill constraint force ........ 0
    scale factor for drill constraint force .......    0.0000E+00

    w mode deletion angle in degrees ..............    0.0000E+00

    stretch ratio deletion (l/l0) .................    0.0000E+00

    flag for error exit in case of unwanted        
    interpolation of inital stresses ..............       0

    number of shell  part IDs for termination......       0
          eq. 0:  inactive                              
          gt. 0:  # part IDs where # failed are defined 

    number of solid  part IDs for termination......       0
          eq. 0:  inactive                              
          gt. 0:  # part IDs where # failed are defined 

    integration rule for quadratic tetrahedrons....       4
          eq. 4:  4 point integration formula           
          eq. 5:  5 point integration formula           

    integration rule for quadratic shells..........       3
          eq. 2:  2x2 integration in plane              
          eq. 3:  3x3 integration in plane              

    stress output for solid element spotwelds......       0
          eq. 1:  global (default)                      
          eq. 2:  local                                 

    # of solid elements with death times...........       0

    # of beam  elements with death times...........       0

    # of shell elements with death times...........       0

    # of thick shell elements with death times.....       0

    # of box definitions for element deletion......       0

    # of parts to be annealed......................       0

    flag for input of elbow extra scalar nodes.....       0

    flag for material stochastic variations........       0

    number of tailor welded blanks ................       0

    number of heat affected zone property sets.....       0

    flag for loading segments with file option.....       0

    flag for loading segments FSI link file........       0


    number of solid elements with initial stress ..       0

    number of sph   elements with initial stress ..       0

    number of beam  elements with initial stress ..       0

    number of shell elements with initial stress ..       0

    number of shell elements with initial strain ..       0

    number of iga-shell elms with initial stress ..       0

    number of iga-shell elms with initial strain ..       0

    number of iga-solid elms with initial stress ..       0

    number of iga-solid elms with initial strain ..       0

    maximum number of tensor data .................       0

    maximum number of history variables ...........       0

    no. of thick shell elems with initial stress ..       0

    number of solid elements with initial strain ..       0

    number of solid elements with initial dof......       0

    number of nodes with initial geometry..........       0

    write nodes with initial geometry..............       0
        = 0: do not write nodes
        = 1: write nodes

    number of discrete element spheres.............       0

    flag for initial transverse shear stresses ....       0
        = 0: keep transverse shear stresses (default)
        = 1: set transverse shear stresses to zero

    number of of thick shells with inital strain...       0

    cohesive element erosion d/t failed neighbors .       0
        = 0: do not delete cohesive elements
        = 1: delete cohesive elements


    CONTROL CARD 13. Computation Options-Materials

    hourglass formulation..........................       0
          eq.0   LS-DYNA versions 940 and after         
          eq.1   LS-DYNA versions 936 and before        

    hourglass models                              
          eq.1: standard viscous form                  
          eq.2: flanagan-belytschko viscous form       
                1pt volume integration for solids      
          eq.3: flanagan-belytschko viscous form       
                exact volume integration for solids    
          eq.4: flanagan-belytschko stiffness form     
                1pt volume integration for solids      
          eq.5: flanagan-belytschko stiffness form     
                exact volume integration for solids    
          eq.6: bindeman-belytschko stiffness form     
                for 2d and 3d solid elements only      
          eq.9: puso stiffness form for 3d solid       
                elements only                          

    hourglass model (default)......................       0

    hourglass coefficient (default)................    0.0000E+00

    bulk viscosity type (default)..................       0
          eq.-2: standard +types 2,4,10,16,17 shells+IE 
          eq.-1: standard +types 2,4,10,16,17 shells    
          eq.+1: standard                               

    quadratic bulk viscosity coefficient...........    0.0000E+00

    linear bulk viscosity coefficient..............    0.0000E+00

    bulk viscosity type for beams..................       0
          eq.+1: standard  
          eq.+2: standard + IE 

    flag for rayleigh damping input................       0
          eq.0:  off (default)                          
          eq.1:  on                                     

    flag for rigid/deformable material switching...       1
          eq.1:  off (default)                          
          eq.2:  on                                     
          eq.3:  on and automatic switching             

    thermal effects option.........................       0
          eq.0:  no thermal effects                      
          eq.n:  nodal temps scaled by load ftn -n-      
          eq.-1: coupled thermal mechanical analysis     
          eq.-2: temperature data input option 2         
          eq.-3: thermal solution                        
          eq.-4: Read binary temperature file            
          eq.-9998: user defined load set temp. input    
          eq.-9999: temperature data input option 1      

    thermal curve ID used for dynamic relaxation... 0

    super plastic forming input option.............       0
          eq.0:  skip input                              
          eq.1:  read superplastic input section         

    objective stress update for large Dt...........       0
          eq.0:  off (default)                           
          eq.1:  on globally                             
          eq.2:  on for part subset                      

    default contact parameters input option........       0
          eq.0:  no                                      
          eq.1:  yes                                     

    number of reinforcement cards for mat 84&85....       0

    output interval for aea_crack database.........    0.0000E+00

    number of non local materials..................       0

    neighbours arrays oversized of (%).............       0

    number of parts defined for adaptive failure...       0

    number of elements with specified temperature..       0

    number of parts with spotweld rupture stress...       0

    number of parts with spotweld rupture parametr.       0

    number of spotweld lists.......................       0

    number of rows of opt=10 spot weld failure data       0

[...]
 time step......................   3.32908E-08
 kinetic energy.................   4.50295E+01
 internal energy................   1.13350E+02
 spring and damper energy.......   1.00000E-20
 system damping energy..........   0.00000E+00
 sliding interface energy.......   0.00000E+00
 external work..................   1.58371E+02
 eroded kinetic energy..........   0.00000E+00
 eroded internal energy.........   0.00000E+00
 eroded hourglass energy........   0.00000E+00
 total energy...................   1.58379E+02
 total energy / initial energy..   1.00005E+00
 energy ratio w/o eroded energy.   1.00005E+00
 global x velocity..............  -9.26759E+01
 global y velocity..............  -1.25414E+02
 global z velocity..............   4.25640E+03
 cpu time per zone cycle............         0 nanoseconds
 average cpu time per zone cycle....         0 nanoseconds
 average clock time per zone cycle..         0 nanoseconds

   28541 t 9.4999E-04 dt 3.33E-08 write d3plot file            06/19/23 21:19:04

 dt of cycle   28600 is controlled by solid           2849 of part         2

 time...........................   9.51952E-04
 time step......................   3.32836E-08
 kinetic energy.................   4.00882E+01
 internal energy................   1.29681E+02
 spring and damper energy.......   1.00000E-20
 system damping energy..........   0.00000E+00
 sliding interface energy.......   0.00000E+00
 external work..................   1.69763E+02
 eroded kinetic energy..........   0.00000E+00
 eroded internal energy.........   0.00000E+00
 eroded hourglass energy........   0.00000E+00
 total energy...................   1.69770E+02
 total energy / initial energy..   1.00004E+00
 energy ratio w/o eroded energy.   1.00004E+00
 global x velocity..............  -1.01450E+02
 global y velocity..............  -9.30519E+01
 global z velocity..............   3.73471E+03
 cpu time per zone cycle............         0 nanoseconds
 average cpu time per zone cycle....         0 nanoseconds
 average clock time per zone cycle..         0 nanoseconds


 dt of cycle   28700 is controlled by solid           2849 of part         2

 time...........................   9.55280E-04
 time step......................   3.32815E-08
 kinetic energy.................   3.50964E+01
 internal energy................   1.47025E+02
 spring and damper energy.......   1.00000E-20
 system damping energy..........   0.00000E+00
 sliding interface energy.......   0.00000E+00
 external work..................   1.82116E+02
 eroded kinetic energy..........   0.00000E+00
 eroded internal energy.........   0.00000E+00
 eroded hourglass energy........   0.00000E+00
 total energy...................   1.82122E+02
 total energy / initial energy..   1.00003E+00
 energy ratio w/o eroded energy.   1.00003E+00
 global x velocity..............  -9.57934E+01
 global y velocity..............  -8.02181E+01
 global z velocity..............   3.33178E+03
 cpu time per zone cycle............         0 nanoseconds
 average cpu time per zone cycle....         0 nanoseconds
 average clock time per zone cycle..         0 nanoseconds


 dt of cycle   28800 is controlled by solid           2849 of part         2

 time...........................   9.58609E-04
 time step......................   3.32804E-08
 kinetic energy.................   2.90653E+01
 internal energy................   1.65155E+02
 spring and damper energy.......   1.00000E-20
 system damping energy..........   0.00000E+00
 sliding interface energy.......   0.00000E+00
 external work..................   1.94217E+02
 eroded kinetic energy..........   0.00000E+00
 eroded internal energy.........   0.00000E+00
 eroded hourglass energy........   0.00000E+00
 total energy...................   1.94221E+02
 total energy / initial energy..   1.00002E+00
 energy ratio w/o eroded energy.   1.00002E+00
 global x velocity..............  -9.76451E+01
 global y velocity..............  -1.36011E+02
 global z velocity..............   2.90024E+03
 cpu time per zone cycle............         0 nanoseconds
 average cpu time per zone cycle....         0 nanoseconds
 average clock time per zone cycle..         0 nanoseconds

   28841 t 9.5997E-04 dt 3.33E-08 write d3plot file            06/19/23 21:19:04

 dt of cycle   28900 is controlled by solid           2849 of part         2

 time...........................   9.61937E-04
 time step......................   3.32906E-08
 kinetic energy.................   2.20755E+01
 internal energy................   1.82482E+02
 spring and damper energy.......   1.00000E-20
 system damping energy..........   0.00000E+00
 sliding interface energy.......   0.00000E+00
 external work..................   2.04554E+02
 eroded kinetic energy..........   0.00000E+00
 eroded internal energy.........   0.00000E+00
 eroded hourglass energy........   0.00000E+00
 total energy...................   2.04557E+02
 total energy / initial energy..   1.00002E+00
 energy ratio w/o eroded energy.   1.00002E+00
 global x velocity..............  -9.42955E+01
 global y velocity..............  -1.24291E+02
 global z velocity..............   2.63510E+03
 cpu time per zone cycle............         0 nanoseconds
 average cpu time per zone cycle....         0 nanoseconds
 average clock time per zone cycle..         0 nanoseconds


 dt of cycle   29000 is controlled by solid           2849 of part         2

 time...........................   9.65265E-04
 time step......................   3.32784E-08
 kinetic energy.................   1.57407E+01
 internal energy................   1.96638E+02
 spring and damper energy.......   1.00000E-20
 system damping energy..........   0.00000E+00
 sliding interface energy.......   0.00000E+00
 external work..................   2.12376E+02
 eroded kinetic energy..........   0.00000E+00
 eroded internal energy.........   0.00000E+00
 eroded hourglass energy........   0.00000E+00
 total energy...................   2.12379E+02
 total energy / initial energy..   1.00001E+00
 energy ratio w/o eroded energy.   1.00001E+00
 global x velocity..............  -8.07959E+01
 global y velocity..............  -4.60359E+01
 global z velocity..............   2.51495E+03
 cpu time per zone cycle............         0 nanoseconds
 average cpu time per zone cycle....         0 nanoseconds
 average clock time per zone cycle..         0 nanoseconds


 dt of cycle   29100 is controlled by solid           2849 of part         2

 time...........................   9.68593E-04
 time step......................   3.32786E-08
 kinetic energy.................   1.11835E+01
 internal energy................   2.06994E+02
 spring and damper energy.......   1.00000E-20
 system damping energy..........   0.00000E+00
 sliding interface energy.......   0.00000E+00
 external work..................   2.18174E+02
 eroded kinetic energy..........   0.00000E+00
 eroded internal energy.........   0.00000E+00
 eroded hourglass energy........   0.00000E+00
 total energy...................   2.18178E+02
 total energy / initial energy..   1.00002E+00
 energy ratio w/o eroded energy.   1.00002E+00
 global x velocity..............  -5.19772E+01
 global y velocity..............   5.12315E+00
 global z velocity..............   2.37410E+03
 cpu time per zone cycle............         0 nanoseconds
 average cpu time per zone cycle....         0 nanoseconds
 average clock time per zone cycle..         0 nanoseconds

   29142 t 9.6999E-04 dt 3.33E-08 write d3plot file            06/19/23 21:19:05

 dt of cycle   29200 is controlled by solid           2772 of part         2

 time...........................   9.71922E-04
 time step......................   3.32914E-08
 kinetic energy.................   7.15811E+00
 internal energy................   2.14383E+02
 spring and damper energy.......   1.00000E-20
 system damping energy..........   0.00000E+00
 sliding interface energy.......   0.00000E+00
 external work..................   2.21536E+02
 eroded kinetic energy..........   0.00000E+00
 eroded internal energy.........   0.00000E+00
 eroded hourglass energy........   0.00000E+00
 total energy...................   2.21541E+02
 total energy / initial energy..   1.00002E+00
 energy ratio w/o eroded energy.   1.00002E+00
 global x velocity..............  -9.90811E+00
 global y velocity..............  -4.41242E+01
 global z velocity..............   1.84356E+03
 cpu time per zone cycle............         0 nanoseconds
 average cpu time per zone cycle....         0 nanoseconds
 average clock time per zone cycle..         0 nanoseconds


 dt of cycle   29300 is controlled by solid           2772 of part         2

 time...........................   9.75251E-04
 time step......................   3.32910E-08
 kinetic energy.................   3.32836E+00
 internal energy................   2.19719E+02
 spring and damper energy.......   1.00000E-20
 system damping energy..........   0.00000E+00
 sliding interface energy.......   0.00000E+00
 external work..................   2.23042E+02
 eroded kinetic energy..........   0.00000E+00
 eroded internal energy.........   0.00000E+00
 eroded hourglass energy........   0.00000E+00
 total energy...................   2.23048E+02
 total energy / initial energy..   1.00002E+00
 energy ratio w/o eroded energy.   1.00002E+00
 global x velocity..............  -6.18000E+00
 global y velocity..............  -4.38430E+01
 global z velocity..............   1.23852E+03
 cpu time per zone cycle............         0 nanoseconds
 average cpu time per zone cycle....         0 nanoseconds
 average clock time per zone cycle..         0 nanoseconds


 dt of cycle   29400 is controlled by solid           2849 of part         2

 time...........................   9.78580E-04
 time step......................   3.32823E-08
 kinetic energy.................   6.54514E-01
 internal energy................   2.23615E+02
 spring and damper energy.......   1.00000E-20
 system damping energy..........   0.00000E+00
 sliding interface energy.......   0.00000E+00
 external work..................   2.24265E+02
 eroded kinetic energy..........   0.00000E+00
 eroded internal energy.........   0.00000E+00
 eroded hourglass energy........   0.00000E+00
 total energy...................   2.24269E+02
 total energy / initial energy..   1.00002E+00
 energy ratio w/o eroded energy.   1.00002E+00
 global x velocity..............  -4.31576E+01
 global y velocity..............   3.99943E+01
 global z velocity..............   5.30044E+02
 cpu time per zone cycle............         0 nanoseconds
 average cpu time per zone cycle....         0 nanoseconds
 average clock time per zone cycle..         0 nanoseconds

   29442 t 9.7998E-04 dt 3.33E-08 write d3plot file            06/19/23 21:19:05

 dt of cycle   29500 is controlled by solid           2849 of part         2

 time...........................   9.81908E-04
 time step......................   3.32812E-08
 kinetic energy.................   5.76272E-01
 internal energy................   2.25236E+02
 spring and damper energy.......   1.00000E-20
 system damping energy..........   0.00000E+00
 sliding interface energy.......   0.00000E+00
 external work..................   2.25809E+02
 eroded kinetic energy..........   0.00000E+00
 eroded internal energy.........   0.00000E+00
 eroded hourglass energy........   0.00000E+00
 total energy...................   2.25812E+02
 total energy / initial energy..   1.00001E+00
 energy ratio w/o eroded energy.   1.00001E+00
 global x velocity..............  -1.86490E+01
 global y velocity..............   9.06434E+01
 global z velocity..............  -2.37232E+02
 cpu time per zone cycle............         0 nanoseconds
 average cpu time per zone cycle....         0 nanoseconds
 average clock time per zone cycle..         0 nanoseconds


 dt of cycle   29600 is controlled by solid           2849 of part         2

 time...........................   9.85236E-04
 time step......................   3.32807E-08
 kinetic energy.................   2.22837E+00
 internal energy................   2.24210E+02
 spring and damper energy.......   1.00000E-20
 system damping energy..........   0.00000E+00
 sliding interface energy.......   0.00000E+00
 external work..................   2.26435E+02
 eroded kinetic energy..........   0.00000E+00
 eroded internal energy.........   0.00000E+00
 eroded hourglass energy........   0.00000E+00
 total energy...................   2.26438E+02
 total energy / initial energy..   1.00001E+00
 energy ratio w/o eroded energy.   1.00001E+00
 global x velocity..............   3.25374E+01
 global y velocity..............   4.28219E+01
 global z velocity..............  -1.06555E+03
 cpu time per zone cycle............         0 nanoseconds
 average cpu time per zone cycle....         0 nanoseconds
 average clock time per zone cycle..         0 nanoseconds


 dt of cycle   29700 is controlled by solid           2772 of part         2

 time...........................   9.88564E-04
 time step......................   3.32910E-08
 kinetic energy.................   4.23535E+00
 internal energy................   2.21181E+02
 spring and damper energy.......   1.00000E-20
 system damping energy..........   0.00000E+00
 sliding interface energy.......   0.00000E+00
 external work..................   2.25413E+02
 eroded kinetic energy..........   0.00000E+00
 eroded internal energy.........   0.00000E+00
 eroded hourglass energy........   0.00000E+00
 total energy...................   2.25416E+02
 total energy / initial energy..   1.00002E+00
 energy ratio w/o eroded energy.   1.00002E+00
 global x velocity..............   3.03896E+01
 global y velocity..............   8.00417E+00
 global z velocity..............  -1.45944E+03
 cpu time per zone cycle............         0 nanoseconds
 average cpu time per zone cycle....         0 nanoseconds
 average clock time per zone cycle..         0 nanoseconds

   29743 t 9.9000E-04 dt 3.33E-08 write d3plot file            06/19/23 21:19:05

 dt of cycle   29800 is controlled by solid           2849 of part         2

 time...........................   9.91893E-04
 time step......................   3.32777E-08
 kinetic energy.................   7.08141E+00
 internal energy................   2.15808E+02
 spring and damper energy.......   1.00000E-20
 system damping energy..........   0.00000E+00
 sliding interface energy.......   0.00000E+00
 external work..................   2.22885E+02
 eroded kinetic energy..........   0.00000E+00
 eroded internal energy.........   0.00000E+00
 eroded hourglass energy........   0.00000E+00
 total energy...................   2.22889E+02
 total energy / initial energy..   1.00002E+00
 energy ratio w/o eroded energy.   1.00002E+00
 global x velocity..............   1.76388E+01
 global y velocity..............   6.70191E+01
 global z velocity..............  -1.68375E+03
 cpu time per zone cycle............         0 nanoseconds
 average cpu time per zone cycle....         0 nanoseconds
 average clock time per zone cycle..         0 nanoseconds


 dt of cycle   29900 is controlled by solid           2849 of part         2

 time...........................   9.95221E-04
 time step......................   3.32909E-08
 kinetic energy.................   1.17370E+01
 internal energy................   2.06042E+02
 spring and damper energy.......   1.00000E-20
 system damping energy..........   0.00000E+00
 sliding interface energy.......   0.00000E+00
 external work..................   2.17775E+02
 eroded kinetic energy..........   0.00000E+00
 eroded internal energy.........   0.00000E+00
 eroded hourglass energy........   0.00000E+00
 total energy...................   2.17779E+02
 total energy / initial energy..   1.00002E+00
 energy ratio w/o eroded energy.   1.00002E+00
 global x velocity..............   5.81620E+01
 global y velocity..............   1.01447E+02
 global z velocity..............  -1.93002E+03
 cpu time per zone cycle............         0 nanoseconds
 average cpu time per zone cycle....         0 nanoseconds
 average clock time per zone cycle..         0 nanoseconds


 dt of cycle   30000 is controlled by solid           2772 of part         2

 time...........................   9.98550E-04
 time step......................   3.32909E-08
 kinetic energy.................   1.81774E+01
 internal energy................   1.91221E+02
 spring and damper energy.......   1.00000E-20
 system damping energy..........   0.00000E+00
 sliding interface energy.......   0.00000E+00
 external work..................   2.09395E+02
 eroded kinetic energy..........   0.00000E+00
 eroded internal energy.........   0.00000E+00
 eroded hourglass energy........   0.00000E+00
 total energy...................   2.09398E+02
 total energy / initial energy..   1.00002E+00
 energy ratio w/o eroded energy.   1.00002E+00
 global x velocity..............   1.08560E+02
 global y velocity..............   5.73936E+01
 global z velocity..............  -2.30781E+03
 cpu time per zone cycle............         0 nanoseconds
 average cpu time per zone cycle....         0 nanoseconds
 average clock time per zone cycle..         0 nanoseconds

   30000 t 9.9855E-04 dt 3.33E-08 flush i/o buffers            06/19/23 21:19:05
   30043 t 9.9998E-04 dt 3.33E-08 write d3plot file            06/19/23 21:19:05
 
 *** termination time reached ***
   30043 t 1.0000E-03 dt 3.33E-08 write d3dump01 file          06/19/23 21:19:05
   30043 t 1.0000E-03 dt 3.33E-08 write d3plot file            06/19/23 21:19:05

 N o r m a l    t e r m i n a t i o n                          06/19/23 21:19:05

 S t o r a g e   a l l o c a t i o n   

 Memory required to complete solution   :     648K
 Additional dynamically allocated memory:    2357K
                                   Total:    2357K

 T i m i n g   i n f o r m a t i o n
                        CPU(seconds)   %CPU  Clock(seconds) %Clock
  ----------------------------------------------------------------
  Keyword Processing ... 0.0000E+00    0.00     5.4000E-02    0.65
    KW Reading ......... 0.0000E+00    0.00     1.1000E-02    0.13
    KW Writing ......... 0.0000E+00    0.00     4.0000E-03    0.05
  Initialization ....... 0.0000E+00    0.00     1.3200E-01    1.59
    Init Proc Phase 1 .. 0.0000E+00    0.00     1.2000E-02    0.14
    Init Proc Phase 2 .. 0.0000E+00    0.00     7.0000E-03    0.08
  Element processing ... 8.0000E+00  100.00     6.6270E+00   79.87
    Solids ............. 8.0000E+00  100.00     6.5880E+00   79.40
  Binary databases ..... 0.0000E+00    0.00     9.0000E-02    1.08
  ASCII database ....... 0.0000E+00    0.00     1.7000E-02    0.20
  Contact algorithm .... 0.0000E+00    0.00     1.2000E-02    0.14
  Rigid Bodies ......... 0.0000E+00    0.00     1.6100E-01    1.94
  Time step size ....... 0.0000E+00    0.00     1.9000E-02    0.23
  Group force file ..... 0.0000E+00    0.00     6.0000E-03    0.07
  Others ............... 0.0000E+00    0.00     2.4100E-01    2.90
  Misc. 1 .............. 0.0000E+00    0.00     2.4600E-01    2.96
  Misc. 2 .............. 0.0000E+00    0.00     3.6600E-01    4.41
  Misc. 3 .............. 0.0000E+00    0.00     4.4000E-02    0.53
  Misc. 4 .............. 0.0000E+00    0.00     2.8200E-01    3.40
  ----------------------------------------------------------------
  T o t a l s            8.0000E+00  100.00     8.2970E+00  100.00

 Problem time       =    1.0000E-03
 Problem cycle      =     30043
 Total CPU time     =         8 seconds (   0 hours  0 minutes  8 seconds)
 CPU time per zone cycle  =        109.133 nanoseconds
 Clock time per zone cycle=        110.647 nanoseconds

 Number of CPU's    4
 NLQ used/max     136/  136
 Start time   06/19/2023 21:18:57  
 End time     06/19/2023 21:19:05  
 Elapsed time       8 seconds for   30043 cycles using  4 SMP threads
             (      0 hour   0 minute   8 seconds)

 N o r m a l    t e r m i n a t i o n                          06/19/23 21:19:05
