      Date: 10/24/2021      Time: 14:46:57  

     ___________________________________________________
     |                                                 |
     |  Livermore  Software  Technology  Corporation   |
     |                                                 |
     |  7374 Las Positas Road                          |
     |  Livermore, CA 94551                            |
     |  Tel: (925) 449-2500  Fax: (925) 449-2507       |
     |  www.lstc.com                                   |
     |_________________________________________________|
     |                                                 |
     |  LS-DYNA, A Program for Nonlinear Dynamic       |
     |  Analysis of Structures in Three Dimensions     |
     |  Version : smp s R7.0.0    Date: 01/10/2013     |
     |  Revision: 79055           Time: 16:39:15       |
     |                                                 |
     |  Features enabled in this version:              |
     |    Shared Memory Parallel                       |
     |    Interactive Graphics                         |
     |    ANSYS Database format                        |
     |    NSYS License (ANSYS145)                      |
     |                                                 |
     |  Licensed to: LND-7330757468@CS                 |
     |                                                 |
     |  Platform   : WINDOWS X64                       |
     |  OS Level   : Windows XP/Vista/7 SRV 2003/2008  |
     |  Compiler   : Intel Fortran 10.1 & MSVC++ 2008  |
     |  Hostname   : DESKTOP-4PAHJR5                   |
     |  Precision  : Single precision (I4R4)           |
     |  SVN Version: 79069                             |
     |                                                 |
     |  Unauthorized use infringes LSTC copyrights     |
     |_________________________________________________|

 Input file: D:\Source_code\solve_examples\Screw_joint\screw_joint_dyna_new\screw_joi


 The native file format       : 32-bit small endian
 Memory size from default     :    20000000

 ********  notice  ********  notice  ********  notice  ********
 *                                                            *
 * This is the LS-DYNA Finite Element code.                   *
 *                                                            *
 * Neither LSTC nor the authors assume any responsibility for *
 * the validity, accuracy, or applicability of any results    *
 * obtained from this system. The user must verify his own    *
 * results.                                                   *
 *                                                            *
 * LSTC endeavors to make the LS-DYNA code as complete,       *
 * accurate and easy to use as possible.                      *
 * Suggestions and comments are welcomed.  Please report any  *
 * errors encountered in either the documentation or results  *
 * immediately to LSTC through your site focus.               *
 *                                                            *
 * Copyright (C) 1990-2013                                    *
 * by Livermore Software Technology Corp. (LSTC)              *
 * All rights reserved                                        *
 *                                                            *
 ********  notice  ********  notice  ********  notice  ********

 Beginning of keyword reader                                   10/24/21 14:46:57


         **            ******  **********    *******                            
         **           *******  **********   ********                            
         **          **            **      ***                                  
         **           *******      **      **                                   
         **                 **     **      ***                                  
         *********   ********      **       ********                            
         *********   ******        **         ******                            
                                                                                
                                                                                
**           ******    *******    **    **  *      **    *****                  
**          *******    ********   **    **  **     **   *******                 
**         **          **   ***   **    **  ***    **  ***   ***                
**           **        **   ***   **    **  ***    **  ***   ***                
**             **   ** **    **     ****    ** **  **  *********                
**               **    **   ***      **     **    ***  **     **                
**               **    **   ***      **     **    ***  **     **                
*********  *******     *******       **     **     **  **     **                
*********  *******     ******        **     **      *  **     **                

            L I S T   O F   K E Y W O R D   C O U N T S   

total # of *AIRBAG_option..........................       0
total # of *AIRBAG_INTERACTION.....................       0
total # of *AIRBAG_PARTICLE........................       0
total # of *AIRBAG_REFERENCE_GEOMETRY..............       0
total # of *AIRBAG_SHELL_REFERENCE_GEOMETRY........       0
total # of *PARTICLE_BLAST.........................       0
total # of *ALE_FSI_SWITCH_MMG.....................       0
total # of *ALE_FAIL_SWITCH_MMG....................       0
total # of *ALE_FRAGMENTATION......................       0
total # of *ALE_COUPLING_NODAL.....................       0
total # of *CONSTRAINED_LAGRANGE_IN_SOLID..........       0
total # of *ALE_REFERENCE_SYSTEM_GROUP.............       0
total # of *ALE_AMBIENT_HYDROSTATIC................       0
total # of *BOUNDARY_ACOUSTIC_COUPLING.............       0
total # of *BOUNDARY_ACOUSTIC_COUPLING_MISMATCH....       0
total # of *BOUNDARY_ACOUSTIC_MAPPING..............       0
total # of *BOUNDARY_ALE_MIXING_LENGTH.............       0
total # of *BOUNDARY_CONVECTION_SEGMENT............       0
total # of *BOUNDARY_CONVECTION_SET................       0
total # of *BOUNDARY_CYCLIC........................       0
total # of *BOUNDARY_ELEMENT_METHOD_FLOW...........       0
total # of *BOUNDARY_ELEMENT_METHOD_CONTROL........       0
total # of *BOUNDARY_ELEMENT_METHOD_NEIGHBOR.......       0
total # of *BOUNDARY_ELEMENT_METHOD_WAKE...........       0
total # of *BOUNDARY_ELEMENT_METHOD_SYMMETRY.......       0
total # of *BOUNDARY_FLUX_SEGMENT..................       0
total # of *BOUNDARY_FLUX_SET......................       0
total # of *BOUNDARY_NON_REFLECTING................       0
total # of *BOUNDARY_MCOL..........................       0
total # of *BOUNDARY_PORE_FLUID ...................       0
total # of *BOUNDARY_PRESCRIBED_MOTION_NODE.+RIGID.       0
total # of *BOUNDARY_PRESCRIBED_FINAL_GEOMETRY.....       0
total # of *BOUNDARY_PRESCRIBED_MOTION_SET.........       0
total # of *BOUNDARY_PRESCRIBED_ORIENTATION........       0
total # of *BOUNDARY_PRESCRIBED_ACCELEROMETER......       0
total # of *BOUNDARY_PRESSURE_OUTFLOW_SEGMENT......       0
total # of *BOUNDARY_PRESSURE_OUTFLOW_SET..........       0
total # of *BOUNDARY_PWP_OPTION ...................       0
total # of *BOUNDARY_RADIATION_SEGMENT.(Type 1)....       0
total # of *BOUNDARY_RADIATION_SET.................       0
total # of *BOUNDARY_RADIATION_SEGMENT.(Type 2)....       0
total # of *BOUNDARY_RADIATION_SET.(Type 2)........       0
total # of *BOUNDARY_SLIDING_PLANE.................       0
total # of *BOUNDARY_SPC_NODE......................       0
total # of *BOUNDARY_SPC_SET.......................       0
total # of *BOUNDARY_SPH_FLOW......................       0
total # of *BOUNDARY_SPH_SYMMETRY_PLANE............       0
total # of *BOUNDARY_SYMMETRY_FAILURE..............       0
total # of *BOUNDARY_TEMPERATURE_NODE..............       0
total # of *BOUNDARY_TEMPERATURE_SET...............       0
total # of *BOUNDARY_THERMAL_BULKFLOW_SET..........       0
total # of *BOUNDARY_THERMAL_BULKFLOW_ELEMENT......       0
total # of *BOUNDARY_THERMAL_BULKNODE..............       0
total # of *BOUNDARY_THERMAL_WELD..................       0
total # of *BOUNDARY_USA...........................       0
total # of *COMPONENT_GEBOD........................       0
total # of *COMPONENT_GEBOD_JOINT..................       0
total # of *COMPONENT_HYBRIDIII....................       0
total # of *COMPONENT_HYBRIDIII_JOINT..............       0
total # of *CONSTRAINED_BUTT_WELD..................       0
total # of *CONSTRAINED_EXTRA_NODES................       0
total # of *CONSTRAINED_EXTRA_NODES_SET............       2
total # of *CONSTRAINED_GLOBAL.....................       0
total # of *CONSTRAINED_INTERPOLATION..............       0
total # of *CONSTRAINED_JOINT_type.................       1
total # of *CONSTRAINED_JOINT_COOR_type............       0
total # of *CONSTRAINED_JOINT_..._FAILURE..........       0
total # of *CONSTRAINED_JOINT_USER_FORCE...........       0
total # of *CONSTRAINED_JOINT_STIFFNESS_type.......       0
total # of *CONSTRAINED_LINEAR.....................       0
total # of *CONSTRAINED_LINEAR_LOCAL...............       0
total # of *CONSTRAINED_NODAL_RIGID_BODY_option....       0
total # of *CONSTRAINED_NODE_SET...................       0
total # of *CONSTRAINED_RIGID_BODIES...............       0
total # of *CONSTRAINED_RIGID_BODY_STOPPERS........       0
total # of *CONSTRAINED_SHELL-SOLID................       0
total # of *CONSTRAINED_SPLINE.....................       0
total # of *CONSTRAINED_SPOTWELD+CONSTRAINED_RIVET.       0
total # of *CONSTRAINED_TIE-BREAK..................       0
total # of *CONSTRAINED_TIE-NODE-FAILURE...........       0
total # of *CONTACT_option.........................       0
total # of *CONTACT_GEOMETRIC_option...............       0
total # of *CONTACT_GUIDED_CABLE...................       0
total # of *CONTACT_1D.............................       0
total # of *CONTACT_2D.............................       0
total # of *CONTACT_2D_AUTOMATIC...................       0
total # of *CONTROL_ACOUSTIC.......................       0
total # of *CONTROL_ADAPTIVITY.....................       0
total # of *CONTROL_BULK_VISCOSITY.................       0
total # of *CONTROL_CHECK..........................       0
total # of *CONTROL_CONTACT........................       0
total # of *CONTROL_COUPLING.......................       0
total # of *CONTROL_CPU............................       0
total # of *CONTROL_DYNAMIC_RELAXATION (DAMPING)...       0
total # of *CONTROL_EFG............................       0
total # of *CONTROL_ENERGY.........................       0
total # of *CONTROL_EXPLOSIVE_SHADOW...............       0
total # of *CONTROL_FREQUENCY_RESPONSE_FUNCTION....       0
total # of *CONTROL_HOURGLASS......................       0
total # of *MPP_option.............................       0
total # of *CONTROL_NONLOCAL.......................       0
total # of *CONTROL_OUTPUT.........................       0
total # of *CONTROL_PARALLEL.......................       0
total # of *CONTROL_REFINE.........................       0
total # of *CONTROL_SHELL..........................       0
total # of *CONTROL_SOLUTION.......................       0
total # of *CONTROL_SPH............................       0
total # of *CONTROL_SUBCYCLE.......................       0
total # of *CONTROL_THERMAL_SOLVER.................       0
total # of *CONTROL_THERMAL_TIMESTEP...............       0
total # of *CONTROL_THERMAL_NONLINEAR..............       0
total # of *CONTROL_THERMAL_EIGENVALUE.............       0
total # of *CONTROL_TIMESTEP.......................       1
total # of *CONTROL_TERMINATION....................       1
total # of *CONTROL_VIBRO_ACOUSTIC.................       0
total # of *CONTROL_CPM............................       0
total # of *DAMPING_GLOBAL.........................       0
total # of *DAMPING_PART_MASS......................       0
total # of *DAMPING_PART_MASS_SET..................       0
total # of *DAMPING_PART_STIFFNESS.................       0
total # of *DAMPING_PART_STIFFNESS_SET.............       0
total # of *DAMPING_RELATIVE.......................       0
total # of *DAMPING_DISCRETE_SPHERE................       0
total # of *DATABASE_ABSTAT........................       0
total # of *DATABASE_ATDOUT........................       0
total # of *DATABASE_AVSFLT........................       0
total # of *DATABASE_BNDOUT........................       0
total # of *DATABASE_CPM_SENSOR....................       0
total # of *DATABASE_CURVOUT.......................       0
total # of *DATABASE_DISBOUT.......................       0
total # of *DATABASE_DCFAIL........................       0
total # of *DATABASE_DEFGEO........................       0
total # of *DATABASE_DEFORC........................       0
total # of *DATABASE_ELOUT.........................       0
total # of *DATABASE_FSI...........................       0
total # of *DATABASE_FSI_SENSOR....................       0
total # of *DATABASE_GCEOUT........................       0
total # of *DATABASE_GLSTAT........................       0
total # of *DATABASE_H3OUT.........................       0
total # of *DATABASE_JNTFORC.......................       0
total # of *DATABASE_MASSOUT.......................       0
total # of *DATABASE_MATSUM........................       0
total # of *DATABASE_MPGS.......... ...............       0
total # of *DATABASE_MOVIE.........................       0
total # of *DATABASE_NCFORC........................       0
total # of *DATABASE_NODFOR........................       0
total # of *DATABASE_NODOUT........................       0
total # of *DATABASE_PLLYOUT.......................       0
total # of *DATABASE_RBDOUT........................       0
total # of *DATABASE_RCFORC_MOMENT.................       0
total # of *DATABASE_RCFORC........................       0
total # of *DATABASE_RWFORC........................       0
total # of *DATABASE_SBTOUT........................       0
total # of *DATABASE_SECFORC.......................       0
total # of *DATABASE_SLEOUT........................       0
total # of *DATABASE_SPCFORC.......................       0
total # of *DATABASE_SPH...........................       0
total # of *DATABASE_SUPERPLASTIC..................       0
total # of *DATABASE_SWFORC........................       0
total # of *DATABASE_TPRINT........................       0
total # of *DATABASE_TRHIST........................       0
total # of *DATABASE_BINARY_D3PLOT.................       1
total # of *DATABASE_BINARY_D3THDT.................       0
total # of *DATABASE_BINARY_D3PART.................       0
total # of *DATABASE_BINARY_D3DRFL.................       0
total # of *DATABASE_BINARY_D3DUMP.................       0
total # of *DATABASE_BINARY_RUNRSF.................       0
total # of *DATABASE_BINARY_INTFOR.................       0
total # of *DATABASE_BINARY_FSIFOR.................       0
total # of *DATABASE_BINARY_CPMFOR.................       0
total # of *DATABASE_BINARY_DEMFOR.................       0
total # of *DATABASE_BINARY_XTFILE.................       0
total # of *DATABASE_BINARY_BLSTFOR................       0
total # of *DATABASE_CROSS_SECTION_option..........       0
total # of *DATABASE_EXTENT_AVS....................       0
total # of *DATABASE_EXTENT_MOVIE .................       0
total # of *DATABASE_EXTENT_MPGS...................       0
total # of *DATABASE_EXTENT_BINARY.................       0
total # of *DATABASE_EXTENT_D3PART.................       0
total # of *DATABASE_EXTENT_INTFOR.................       0
total # of *DATABASE_FREQUENCY_BINARY_D3ACS........       0
total # of *DATABASE_FREQUENCY_BINARY_D3FTG........       0
total # of *DATABASE_FREQUENCY_BINARY_D3PSD........       0
total # of *DATABASE_FREQUENCY_BINARY_D3RMS........       0
total # of *DATABASE_FREQUENCY_BINARY_D3SPCM.......       0
total # of *DATABASE_FREQUENCY_BINARY_D3SSD........       0
total # of *DATABASE_HISTORY_NODE_option...........       0
total # of *DATABASE_HISTORY_SOLID_option..........       0
total # of *DATABASE_HISTORY_BEAM_option...........       0
total # of *DATABASE_HISTORY_SHELL_option..........       0
total # of *DATABASE_HISTORY_SPH_option............       0
total # of *DATABASE_HISTORY_TSHELL_option.........       0
total # of *DATABASE_NODAL_FORCE_GROUP.............       0
total # of *DATABASE_POWER_SPECTRAL_DENSITY........       0
total # of *DATABASE_POWER_SPECTRAL_DENSITY_FREQUE.       0
total # of *DATABASE_PWP_FLOW .....................       0
total # of *DEFINE_ADAPTIVE_SOLID_TO_SPH...........       0
total # of *DEFINE_BOX.............................       0
total # of *DEFINE_CONSTRUCTION_STAGES ............       0
total # of *DEFINE_COORDINATE_option...............       0
total # of *DEFINE_CPM_BAG_INTERACTION.............       0
total # of *DEFINE_CPM_CHAMBER.....................       0
total # of *DEFINE_CPM_GAS_PROPERTIES..............       0
total # of *DEFINE_CPM_VENT........................       0
total # of *DEFINE_CURVE...........................       1
total # of *DEFINE_CURVE_DUPLICATE.................       0
total # of *DEFINE_CURVE_ENTITY....................       0
total # of *DEFINE_CURVE_FUNCTION..................       0
total # of *DEFINE_DE_ACTIVE_REGION................       0
total # of *DEFINE_DE_INJECTION....................       0
total # of *DEFINE_DE_TO_SURFACE_COUPLING..........       0
total # of *DEFINE_DE_BOND.........................       0
total # of *DEFINE_FRICTION........................       0
total # of *DEFINE_FUNCTION........................       0
total # of *DEFINE_GROUND_MOTION...................       0
total # of *DEFINE_PLANE...........................       0
total # of *DEFINE_PBLAST_GEOMETRY.................       0
total # of *DEFINE_VECTOR..........................       0
total # of *DEFINE_VECTOR_NODE.....................       0
total # of *DEFINE_SD_ORIENTATION..................       0
total # of *DEFINE_ELEMENT_DEATH_SOLID.............       0
total # of *DEFINE_ELEMENT_DEATH_BEAM..............       0
total # of *DEFINE_ELEMENT_DEATH_SHELL.............       0
total # of *DEFINE_SHELL_ELEMENT_DEATH_THICK.......       0
total # of *DEFINE_SPH_TO_SPH_COUPLING.............       0
total # of *DEFINE_SPOTWELD_RUPTURE_STRESS.........       0
total # of *DEFINE_SPOTWELD_RUPTURE_PARAMETER......       0
total # of *DEFINE_STAGED_CONSTRUCTION_PART .......       0
total # of *DATABASE_BKSTAT........................       0
total # of *DEFORMABLE_TO_RIGID....................       0
total # of *DEFORMABLE_TO_RIGID_AUTOMATIC..........       0
total # of *DEFORMABLE_TO_RIGID_INERTIA............       0
total # of *ELEMENT_BEAM_option....................       0
total # of *ELEMENT_BEAM_PULLEY....................       0
total # of *ELEMENT_DISCRETE.......................       0
total # of *ELEMENT_MASS...........................       0
total # of *ELEMENT_MASS_PART......................       0
total # of *ELEMENT_SEATBELT.......................       0
total # of *ELEMENT_SEATBELT_ACCELEROMETER.........       0
total # of *ELEMENT_SEATBELT_PRETENSIONER..........       0
total # of *ELEMENT_SEATBELT_RETRACTOR.............       0
total # of *ELEMENT_SEATBELT_SENSOR................       0
total # of *ELEMENT_SEATBELT_SLIPRING..............       0
total # of *ELEMENT_SHELL_option...................       0
total # of *ELEMENT_SHELL_NURBS_PATCH..............       0
total # of *ELEMENT_SOLID..........................    1144
total # of *ELEMENT_SOLID_NURBS_PATCH..............       0
total # of *ELEMENT_SPH............................       0
total # of *ELEMENT_TSHELL.........................       0
total # of *ELEMENT_INERTIA........................       0
total # of *SENSOR_SWITCH_SHELL_TO_VENT............       0
total # of *EOS_option.............................       0
total # of *FREQUENCY_DOMAIN_ACOUSTIC_BEM..........       0
total # of *FREQUENCY_DOMAIN_ACOUSTIC_FEM..........       0
total # of *FREQUENCY_DOMAIN_FRF...................       0
total # of *FREQUENCY_DOMAIN_MODE..................       0
total # of *FREQUENCY_DOMAIN_PATH..................       0
total # of *FREQUENCY_DOMAIN_RANDOM_VIBRATION......       0
total # of *FREQUENCY_DOMAIN_RESPONSE_SPECTRUM.....       0
total # of *FREQUENCY_DOMAIN_SSD...................       0
total # of *FV_MESHES..............................       0
total # of *FV_FSI.................................       0
total # of *HOURGLASS..............................       0
total # of *INITIAL_AIRBAG_PARTICLE_POSITION.......       0
total # of *INITIAL_AXIAL_FORCE_BEAM...............       0
total # of *INITIAL_DETONATION.....................       0
total # of *INITIAL_FIELD_SOLID....................       0
total # of *INITIAL_IMPULSE_MINE...................       0
total # of *INITIAL_MOMENTUM.......................       0
total # of *INITIAL_PWP_DEPTH .....................       0
total # of *INITIAL_STRAIN_SHELL...................       0
total # of *INITIAL_STRAIN_SHELL_SET...............       0
total # of *INITIAL_STRAIN_SOLID...................       0
total # of *INITIAL_STRAIN_TSHELL..................       0
total # of *INITIAL_STRESS_BEAM....................       0
total # of *INITIAL_STRESS_DEPTH ..................       0
total # of *INITIAL_STRESS_SECTION.................       0
total # of *INITIAL_STRESS_SHELL...................       0
total # of *INITIAL_STRESS_SHELL_SET...............       0
total # of *INITIAL_STRESS_SOLID...................       0
total # of *INITIAL_STRESS_SPH.....................       0
total # of *INITIAL_STRESS_TSHELL..................       0
total # of *INITIAL_TEMPERATURE_SET................       0
total # of *INITIAL_TEMPERATURE_NODE...............       0
total # of *INITIAL_VELOCITY.......................       0
total # of *INITIAL_VELOCITY_NODE..................       0
total # of *INITIAL_VELOCITY_RIGID_BODY............       0
total # of *INITIAL_VOID_PART......................       0
total # of *INITIAL_VOID_SET.......................       0
total # of *INITIAL_VOLUME_FRACTION_GEOMETRY.......       0
total # of *INITIAL_HYDROSTATIC_ALE................       0
total # of *INITIAL_EOS_ALE........................       0
total # of *INITIAL_ALE_MAPPING....................       0
total # of *INTEGRATION_BEAM.......................       0
total # of *INTEGRATION_SHELL......................       0
total # of *INTERFACE_COMPONENT_option.............       0
total # of *INTERFACE_LINKING_DISCRETE_NODE........       0
total # of *INTERFACE_LINKING_DISCRETE_NODE_SET....       0
total # of *INTERFACE_LINKING_EDGE.................       0
total # of *INTERFACE_LINKING_SEGMENT..............       0
total # of *INTERFACE_SPRINGBACK...................       0
total # of *INTERFACE_SSI_AUXILIARY_FREE_FIELD.....       0
total # of *INTERFACE_SSI_STATIC...................       0
total # of *INTERFACE_SSI..........................       0
total # of *LOAD_ALE_CONVECTION ...................       0
total # of *LOAD_AIR_PRESSURE......................       0
total # of *LOAD_BEAM..............................       0
total # of *LOAD_BEAM_SET..........................       0
total # of *LOAD_BODY_GENERALIZED..................       0
total # of *LOAD_BODY_RPOROUS......................       0
total # of *LOAD_BODY_RX...........................       0
total # of *LOAD_BODY_RY...........................       0
total # of *LOAD_BODY_RZ...........................       0
total # of *LOAD_BODY_X............................       0
total # of *LOAD_BODY_Y............................       0
total # of *LOAD_BODY_Z............................       0
total # of *LOAD_BRODE.............................       0
total # of *LOAD_BLAST.............................       0
total # of *LOAD_BLAST_ENHANCED....................       0
total # of *LOAD_BLAST_SEGMENT.....................       0
total # of *LOAD_BLAST_SEGMENT_SET.................       0
total # of *LOAD_DENSITY_DEPTH ....................       0
total # of *LOAD_GRAVITY_PART .....................       0
total # of *LOAD_HEAT_CHEMICAL_REACTION ...........       0
total # of *LOAD_HEAT_CONTROLLER ..................       0
total # of *LOAD_HEAT_GENERATION_SET...............       0
total # of *LOAD_HEAT_GENERATION_SOLID.............       0
total # of *LOAD_HEAT_GENERATION_SET_SHELL.........       0
total # of *LOAD_HEAT_GENERATION_SHELL.............       0
total # of *LOAD_NODE..............................       2
total # of *LOAD_NODE_SET..........................       0
total # of *LOAD_NSG...............................       0
total # of *LOAD_REMOVE_PART ......................       0
total # of *LOAD_SEGMENT...........................       0
total # of *LOAD_SEGMENT_NONUNIFORM................       0
total # of *LOAD_SEGMENT_SET.......................       0
total # of *LOAD_SEGMENT_SET_NONUNIFORM............       0
total # of *LOAD_SEISMIC_SSI_NODE..................       0
total # of *LOAD_SEISMIC_SSI_SET...................       0
total # of *LOAD_SEISMIC_SSI_POINT.................       0
total # of *LOAD_SHELL.............................       0
total # of *LOAD_SHELL_SET.........................       0
total # of *LOAD_STIFFEN_PART .....................       0
total # of *LOAD_SUPERPLASTIC_FORMING..............       0
total # of *LOAD_SURFACE_STRESS....................       0
total # of *LOAD_THERMAL_option_ELEMENT............       0
total # of *LOAD_THERMAL_option_NODE...............       0
total # of *LOAD_THERMAL_option....................       0
total # of *LOAD_THERMAL_LOAD_CURVE................       0
total # of *LOAD_THERMAL_TOPAZ ....................       0
total # of *LOAD_THERMAL_VARIABLE_SHELL_option.....       0
total # of *LOAD_THERMAL_VARIABLE_BEAM _option.....       0
total # of *LOAD_VIBRO_ACOUSTIC....................       0
total # of *LOAD_VOLUME_LOSS ......................       0
total # of *LSO_DOMAIN.............................       0
total # of *LSO_DOMAIN_GROUP.......................       0
total # of *LSO_POINT_SET..........................       0
total # of *LSO_TIME_SEQUENCE......................       0
total # of *LSO_VARIABLE_GROUP.....................       0
total # of *MAT_option.............................       2
total # of *MAT_THERMAL_option.....................       0
total # of *MAT_NONLOCAL...........................       0
total # of *NODE...................................    1568
total # of *NODE_MERGE.............................       0
total # of *NODE_MERGE_TOLERANCE...................       0
total # of *PART_option card.......................       3
total # of *PART_ANNEAL_option.....................       0
total # of *RIGIDWALL_option.......................       0
total # of *SECTION_option.........................       1
total # of *SET_2D_SEGMENT.........................       0
total # of *SET_BEAM...............................       0
total # of *SET_DISCRETE...........................       0
total # of *SET_MODE...............................       0
total # of *SET_NODE_option........................       2
total # of *SET_PART...............................       0
total # of *SET_POINT..............................       0
total # of *SET_SEGMENT............................       0
total # of *SET_SHELL_option.......................       0
total # of *SET_SOLID..............................       0
total # of *SET_TSHELL.............................       0
total # of *TERMINATION_BODY.......................       0
total # of *TERMINATION_DELETED_SHELLS.............       0
total # of *TERMINATION_DELETED_SOLIDS.............       0
total # of *TERMINATION_NODE.......................       0
total # of *TERMINATION_CONTACT....................       0
total # of *TITLE..................................       1
total # of *USER_INTERFACE_CONTROL.................       0
total # of *USER_INTERFACE_FRICTION................       0
total # of *USER_INTERFACE_CONDUCTIVITY............       0
total # of *USER_LOAD..............................       0
total # of *CHANGE_BOUNDARY_CONDITIONS.............       0
total # of *CHANGE_CONTACT_SMALL_PENETRATION.......       0
total # of *CHANGE_RIGID_BODY_CONSTRAINTS..........       0
total # of *CHANGE_RIGID_BODY_INERTIA..............       0
total # of *CHANGE_THERMAL_PARAMETERS..............       0
total # of *CHANGE_VELOCITY_ZERO...................       0
total # of *CHANGE_VELOCITY_RIGID_BODY.............       0
total # of *DELETE_ALECPL..........................       0
total # of *DELETE_CONTACT.........................       0
total # of *DELETE_CONTACT_2DAUTO..................       0
total # of *DELETE_FSI.............................       0
total # of *DELETE_ENTITY..........................       0
total # of *DELETE_ELEMENT_SOLID...................       0
total # of *DELETE_ELEMENT_BEAM....................       0
total # of *DELETE_ELEMENT_SHELL...................       0
total # of *DELETE_ELEMENT_TSHELL..................       0
total # of *DELETE_PART............................       0
total # of *RIGID_DEFORMABLE_CONTROL...............       0
total # of *RIGID_DEFORMABLE_D2R...................       0
total # of *RIGID_DEFORMABLE_R2D...................       0
total # of *STRESS_INITIALIZATION..................       0

 Memory required to process keyword     :       409934

 LS-DYNA will perform a structural only analysis 



 test_screw_joint                                                        
            code input version =1993
            formats            =mlarg



 c o n t r o l   i n f o r m a t i o n

    CONTROL CARD 1. Model Size-General

    number of materials or property sets...........       3

    number of nodal+scalar points..................    1568

    number of merged nodal points..................       0

    number of solid elements.......................    1144

    number of beam elements........................       0

    number of shell elements.......................       0

    number of thick shell elements.................       0

    number of user defined material subroutines....       0

    number of material groups tied to solids.......       0

    number of tracer particles.....................       0

    number of super elements.......................       0

    number of solid tetrahedrons with 10 nodes.....       0

    number of quadratic shell elements.............       0

    number of shells with extra degrees of freedom.       0

    number of solids with extra degrees of freedom.       0

    number of user defined sections................       0

    activate sensor capability (inactive=0)........       0

    number of user defined solid element types.....       0

    number of solid interpolation elements.........       0

    number of user defined shell element types.....       0

    number of shell interpolation elements.........       0

    number of constrained nodes for interpolation..       0

    consistent mass matrix for user-def elements...       0

    number of shell nurbs patches..................       0


    CONTROL CARD 2. Model Size-Boundary Conditions

    number of spc nodes............................       0

    number of spc coordinates......................       0

    number of velocity cards.......................       0

    number of non-reflecting boundary segments.....       0

    number of b. c. cards..........................       0

    number of b. c. cards with failure.............       0

    number of box definition for b. c. card........       0

    number of nodes/interface for cyclic symmetry..       0

    number of rigid bodies with attachment nodes...       0


    CONTROL CARD 3. Model Size-Loading

    number of load curves..........................       1

    number of nodes for load curve functions.......       0

    number of curves for entities..................       0

    number of concentrated load cards..............       2

    number of pressure load cards..................       0

    number of nonuniform pressure loads-4 nodes....       0

    number of nonuniform pressure loads-6 nodes....       0

    number of nonuniform pressure loads-8 nodes....       0

    number of generalized body force sets..........       0

    number of beam pressure card definitions.......       0

    number of detonation points....................       0

    number of zones for momentum deposition........       0

    number of points in density vs. depth curve....       0

    number of outflow boundary segments............       0

    number of load curve feedback sets.............       0

    number of pressure load sets with masks........       0

    number of spray systems .......................       0

    number of initial stress by cross-sections sets       0

    number of pressure load sets...................       0

    number of ground motion defintions.............       0

    number of ground motions specified at nodes....       0

    number of ground motions specified at points...       0

    number of ground motions specified in bin file.       0

    number of segsets with specified ground motion.       0

    number of soil-structure interfaces for output.       0

    number of aero-acoustic load cards.............       0


    CONTROL CARD 4. Model Size-Constraints and Contact

    number of rigid wall definitions...............       0

    number of number of contact definitions........       0

    number of number of guided cable contacts......       0

    number of shell-solid interfaces...............       0

    number of tie-breaking slide lines.............       0

    number of blocks of tied nodes with fracture ..       0

    number of tied nodal pairs for linking.........       0

    number of constraint cards.....................       0

    number of linear constraint equations..........       0

    number of 1d slidelines........................       0

    number of adaptive constraints.................       0

    number of ALE smoothing constraints............       0

    number of 2d slidelines........................       0

    number of 2d automatic contacts................       0

    number of part IDs for interior contact........       0

    number of beam release sets....................       0

    max. number of nodes in any beam release set...       0


    CONTROL CARD 5. Model Size-Rigid Body Parameters

    number of rigid body constraint sets...........       0

    number of rigid body merge cards...............       0

    number of joint constraints....................       1

    number of joint failure definitions............       0

    number of joint user force definitions.........       0

    number of extra node blocks....................       2

    number of rigid body inertia definitions.......       0

    number of geometric contact entities...........       0

    number of joint stiffness definitions..........       0

    number of rigid body stoppers..................       0

    joint formulation for rigid bodies.............       0
          eq.0:  penalty                                 
          eq.1:  lagrange multiplier                     

    generalized stiffness angle update ............       0
          eq.0:  incremental formulation                 
          eq.1:  total formulation                       

    number of flexible bodies......................       0
          lt.0:  stress recovery active                  

    number of relative damping definitions.........       0

    flag for reading rigid surface contact input...       0
          eq.0:  no rigid surface contact                 
          eq.1:  read rigid surface input                

    number of Hybrid III dummies ..................       0

    number of Hybrid III joint modifications ......       0

    number of interpolation constraints ...........       0

    flag for metalforming fast rigid bodies........       0
          eq.0:  full rigid body treatment               
          eq.1:  fast rigid body treatment               

    number of prescribed rigid body orientations          0


    CONTROL CARD 6. Model Size-Discrete Elements & Seat Belts

    number of spring-damper material types.........       0

    number of local coordinate systems.............       0

    number of discrete springs and dampers.........       0

    number of lumped masses........................       0

    number of parts with added mass................       0

    number of nodes with mass matrix...............       0

    number of seat belt materials..................       0

    number of seat belt elements...................       0

    number of 2d seat belt elements................       0

    number of slip rings...........................       0

    number of retractors...........................       0

    number of sensors..............................       0

    number of pretensioners........................       0

    number of accelerometers.......................       0

    number of discrete rotary inertias.............       0

    number of SPH particles........................       0

    number of groups of SPH particles..............       0


    CONTROL CARD 7. Model Size-Output Control

    number of cross section definitions............       0

    number of nodal groups for resultant forces....       0

    number of interface segments for linking.......       0

    max. number of segments defining rigid wall....       0

    number of power spectrum density databases.....       0


    CONTROL CARD 8. Computation Options-Termination

    termination time...............................    0.8000E-01

    termination cycle..............................       0

    reduction factor for minimum time step (TSMIN).    0.0000E+00

    percent change in energy ratio for termination.    0.0000E+00

    percent change in total mass for termination...    0.0000E+00

    number of nodes for displacement termination...       0

    number of rigid bodies for disp. termination...       0

    number of conditions for contact termination...       0

    number of conditions for ldcurve termination...       0

    ID of sensor_switch  for sensor  termination...         0


    CONTROL CARD 8a. Computation Options-Start      

    start time.....................................    0.0000E+00


    CONTROL CARD 9. Computation Options-Time Step Size 

    initial time step size.........................    0.0000E+00

    time step scale factor.........................    0.9000E+00

    time step size calculation for 4-node shells...       0
          eq.0:  based on longest element side          
          eq.1:  based on longest element diagonal      
          eq.2:  based on bar wave speed max side       
          eq.3:  based on optimal time step size        
                 estimator                              

    shell element minimum time step assignment.....    0.0000E+00

    time step size for mass scaled solution, dt2ms.    0.0000E+00
          lt.0:  minimum time step size permitted       

    load curve number for maximum timestep.........       0

    erosion flag for solid and thick shells........       0
          eq.0:  no                                      
          eq.1:  yes                                     

    option part set ID for eroding solids..........       0
          eq.0:  all solids are checked if eros_flag=1   
          gt.0:  solids within part set are checked      

    limit mass scaling to the first time step......       0
          eq.0:  no                                      
          eq.1:  yes                                     

    scale factor on initial dt to determine dt2ms..    0.0000E+00

    load curve ID for mass scaling ................       0

    flag for selective mass scaling................       0
          eq.0:  off                                     
          eq.1:  on                                      
          eq.2:  on for part subset                      

    consistent constraint logical switch...........       F

    flag for part set for erosion .................       0
          eq.0:  no                                      
          eq.1:  yes                                     

    flag for accounting for rotations in sms.......    0.0000E+00
          eq.0.:  off (default)                           
          gt.0.:  on                                      
    implicit_explicit_hybrid part set..............       0



    CONTROL CARD 10. Computation Options-Loading

    x-ground acceleration..........................       0
          eq.0:  no                                      
          eq.1:  yes                                     

    y-ground acceleration..........................       0
          eq.0:  no                                      
          eq.1:  yes                                     

    z-ground acceleration..........................       0
          eq.0:  no                                      
          eq.1:  yes                                     

    x-angular velocity.............................       0
          eq.0:  no                                      
          eq.1:  yes                                     

    y-angular velocity.............................       0
          eq.0:  no                                      
          eq.1:  yes                                     

    z-angular velocity.............................       0
          eq.0:  no                                      
          eq.1:  yes                                     

    number of materials receiving body forces......       0
          eq.0:  all                                     
          eq.n:  subset of n materials                   

    flag for user defined loading subroutine.......       0
          lt.0:  magnitude=# of input constants          
          eq.0:  no                                      
          eq.1:  yes, but no additional input            

    explosive initiation option....................       0
          eq.0:  lighting times based on distance        
          eq.1:  lighting times include geometric        
                 effects for wave shapers, etc.          

    sub-sea structural analysis option.............       0
          eq.0:  off                                     
          eq.1:  on with 1 point integration             
          eq.4:  on with 4 point integration             
    contact pressure calculation option............       0
          eq.0:  off (default)                           
          eq.1:  on                                      
    # of user defined loading set..................       0


    CONTROL CARD 11. Computation Options-Input Control

    initialization of velocities...................       0
          eq.0: velocities are initialized to zero       
          eq.1: initial velocities are read in           
          eq.2: all velocities have same input value     
          eq.3: as 2 but exempted nodes are defined      
          eq.4: box option                               
          eq.5: generation with arbitrary numbering      
          eq.6: rotational and translational via IDs     
          eq.7: option 6 but applied during calculation  

    time to apply initial velocites (option 7).....    0.0000E+00

    arbitrary node and element numbering flag .....       1

    constitute, eqs-of-state, cross-section option.       0
          eq.0:  off                                     
          eq.1:  separate input is required for each     

    specified nodal coordinate format..............    e20.0

    flag for thermodynamic control volume input....       0

    overpressure option (eq.0 no,  eq.1 yes).......       0

    number of part (de) activation sensors.........       0

    number of rigid body initial velocity sets.....       0

    jacobian tolerance for type 16 tetrahedron.....    0.0000E+00



    CONTROL CARD 12. Computation Options-Elements  

    warped shell angle in deg. for error message...    0.2000E+02

    iterative plane stress plasticity for shells...       1
          eq.1:  vectorized with three iterates         
          eq.2:  nonvectorized iterations as needed     
          eq.3:  noniterative radial return             

    Calculation option for F for solid elements....       0
          eq.0:  default, explicit=1, implicit=2        
          eq.1:  integrate incrementally                
          eq.2:  compute directly                       

    flag for automatic sorting ....................       0
          eq. 1:  on for triangular shells              
          eq.11:  on for triangular shells and solids   
          eq.10:  on for solids (tets and pentas)       

    formulation for sorted trianglar shells .......       0
          eq. 0:  C0 triangle, type  4                   
          eq. 1:  DKT triangle type 17                   

    hughes-liu normal computation options..........      -1
          eq.-2: unique nodal fibers                    
          eq.-1: compute normals each cycle
          eq.0 : default set to -1     
          eq.1 : compute on restart
          eq.n : compute on restart + each nth cycle     

    thickness modification for membrane strains....       0
          eq.0:  no                                     
          eq.1:  4-node shell only                      
          eq.2:  8-node thick shell types 1 & 2         
          eq.3:  update both 4 & 8 node thickness       
          eq.4:  same as option 1 but the elastic       
                 strains are neglected                  

    shell part set ID (pids) for thickness update.        0
          lt.0: exclude pids if update option is active  
          eq.0: include  all if update option is active  
          gt.0: include pids if update option is active  

    shell part set ID where type 4 update applies         0

    shell formulation basis........................       2
          eq.   1: hughes-liu                            
          eq.   2: belytschko-tsay                       
          eq.   3: bciz                                  
          eq.   4: c0-triangular element                 
          eq.   5: membrane element                      
          eq.   6: s/r hughes-liu                        
          eq.   7: s/r co-rotational hughes-liu          
          eq.   8: belytschko-leviathan shell            
          eq.   9: fully integrated membrane             
          eq.  10: belytschko-wong-chiang                
          eq.  11: fast hughes-liu                       
          eq.  12: 2d plane stress                       
          eq.  13: 2d plane strain                       
          eq.  14: 2d axisymmetric  (area wgt)           
          eq.  15: 2d axisymmetric  (volume wgt)         
          eq.  16: fully integrated element              
          eq.  17: dkt element                           
          eq.  18: dkq-dkt linear element                
          eq.  20: assumed strain linear element         
          eq.  21: assumed strain linear element(5DOF)   
          eq.  22: linear shear panel element(3DOF)      
          eq.  23: 8-node quadratic quadrilateral shell  
          eq.  24: 6-node quadratic triangular shell     
          eq.  25: belytschko-tsay with                  
                   thickness stretch                     
          eq.  26: fully integrated element with         
                   thickness stretch                     
          eq.  27: c0-triangular element with            
                   thickness stretch                     
          eq.  29: cohesive element                      
          eq.  31: 2-d 1-pt. eulerian n-s                
          eq.  32: 2-d 4-pt. eulerian n-s                
          eq.  33: 2-d cvfem eulerian n-s                
          eq.  41: meshfree shell local projection       
          eq.  42: meshfree shell global projection      
          eq.  43: meshfree plane strain                 
          eq.  44: meshfree axisymmetric solid           
          eq.  46: cohesive element                      
          eq.  47: cohesive with shell offsets           
          eq.  98: interpolation shell element           
          eq.  99: elastic vibration element             
          eq. 201: isogeometric nurbs element            
          ge.1000: user defined (generalized) shell      

    # of user specified beam integration rules.....       0

    max number of integration points reqd (beams) .       0

    # of user specified shell integration rules....       0

    max number of integration points reqd (shells).       0

    warping stiffness for Belytschko-Tsay shells...       2
          eq.1:  Belytschko-Wong-Chiang modification    
          eq.2:  original Belytschko-Tsay               

    projection method for warping stiffness........       0
          eq.0:  drill                                   
          eq.1:  full                                    

    reference configuration .......................       0
          eq. 0:  no                                      
          eq. 1:  yes, active for all airbags             
          eq. 2:  yes, reference geometry Dt              
          eq.10:  yes, active for foam elements           
          eq.11:  options 1 and 10 active                 
          eq.12:  options 2 and 10 active                 

    contact reference configuration ...............       0
          eq. 0:  no                                      
          eq. n:  n number of reference nodes             

    invariant node numbering ......................       0
          eq.-4  on for both shell and solid elements   
                 except triangular shells               
          eq.-2  on for shell elements except           
                 triangular shells                      
          eq. 1  off (default)                          
          eq. 2  on for all shell elements              
          eq. 3  on for solid elements with             
                 anisotropic material                   
          eq. 4  on for all shell elements and solid    
                 elements with anisotropic material     

    activation time for reference geometry ........    0.0000E+00

    scale factor for shell rotary mass ............    0.1000E+01

    integration for shell through thickness .......       0
          eq.0:  Gauss                                   
          eq.1:  Lobatto                                 

    use laminated shell theory for material .......       0
    types 22, 54, 55, and 76:                      
          eq.0:  no                                      
          eq.1:  yes for thin shell material types       
                 22, 54, 55, or 76                       
          eq.3:  yes for all thin shell anisotropic      
                 materials or mixed materials            
          eq.4:  yes for all thick shell anisotropic     
                 materials or mixed materials            
          eq.5:  yes for thick and thin shells           

    number of annealed parts .......................       0

    number of new part IDs for COMPOSITE option.....       0

    flag for shell offset vectors .................       0
          eq. 0:  off                                   
          eq. 1:  on                                    

    flag for offset shell contact surface .........       0
          eq. 0:  off                                   
          eq. 1:  on                                    
          eq. 2:  on, but use contact thickness         

    number of point constraints between shells ....       0

    flag for input of beam orientation vectors ....       0

    flag for input of beam offset vectors .........       0

    flag for input of beam warpage scalar nodes....       0

    flag for 12-node shell for thermal ............       0

    local shell coordinate system in type 6 shell..       1
          eq. 0:  uniform local coordinate system       
          eq. 1:  variable local coordinate system      

    Jacobian check on 1 point shells...............       0
          eq. 0:  off                                   
          eq. 1:  on -delete distorted element          
          eq. 2:  on -terminate                         
          eq. n:  terminate when n elements are deleted 

    Jacobian check on 4 point shells...............       0
          eq. 0:  off                                   
          eq. 1:  on -delete distorted element          
          eq. 2:  on -terminate                         
          eq. n:  terminate when n elements are deleted 

    part set ID for Jacobian checks................       0

    keep contact segment related to failed shell...       0
          eq. 0:  off                                   
          eq. 1:  on                                    
    delete free-free shells in Jacobian checks.....       0
          eq. 0:  off                                   
          eq. 1:  on                                    

    part set ID for drill constraint force ........       0
    scale factor for drill constraint force .......    0.0000E+00

    number of shell  part IDs for termination......       0
          eq. 0:  inactive                              
          gt. 0:  # part IDs where # failed are defined 

    number of solid  part IDs for termination......       0
          eq. 0:  inactive                              
          gt. 0:  # part IDs where # failed are defined 

    integration rule for quadratic tetrahedrons....       4
          eq. 4:  4 point integration formula           
          eq. 5:  5 point integration formula           

    integration rule for quadratic shells..........       2
          eq. 2:  2 point integration in plane          
          eq. 3:  3 point integration in plane          

    stress output for solid element spotwelds......       0
          eq. 1:  global (default)                      
          eq. 2:  local                                 

    # of solid elements with death times...........       0

    # of beam  elements with death times...........       0

    # of shell elements with death times...........       0

    # of thick shell elements with death times.....       0

    # of box definitions for element deletion......       0

    # of parts to be annealed......................       0

    flag for input of elbow extra scalar nodes.....       0

    flag for material stochastic variations........       0

    number of heat affected zone property sets.....       0

    flag for loading segments with file option.....       0


    number of solid elements with initial stress ..       0

    number of sph   elements with initial stress ..       0

    number of beam  elements with initial stress ..       0

    number of shell elements with initial stress ..       0

    number of shell elements with initial strain ..       0

    maximum number of tensor data .................       0

    maximum number of history variables ...........       0

    no. of thick shell elems with initial stress ..       0

    number of solid elements with initial strain ..       0

    number of solid elements with initial dof......       0

    number of nodes with initial geometry..........       0

    write nodes with initial geometry..............       0
        = 0: do not write nodes
        = 1: write nodes

    number of discrete element spheres.............       0

    flag for initial transverse shear stresses ....       0
        = 0: keep transverse shear stresses (default)
        = 1: set transverse shear stresses to zero

    number of of thick shells with inital strain...       0


    CONTROL CARD 13. Computation Options-Materials

    hourglass formulation..........................       0
          eq.0   LS-DYNA versions 940 and after         
          eq.1   LS-DYNA versions 936 and before        

    hourglass models                              
          eq.1: standard viscous form                  
          eq.2: flanagan-belytschko viscous form       
                1pt volume integration for solids      
          eq.3: flanagan-belytschko viscous form       
                exact volume integration for solids    
          eq.4: flanagan-belytschko stiffness form     
                1pt volume integration for solids      
          eq.5: flanagan-belytschko stiffness form     
                exact volume integration for solids    
          eq.6: bindeman-belytschko stiffness form     
                for 2d and 3d solid elements only      
          eq.9: puso stiffness form for 3d solid       
                elements only                          

    hourglass model (default)......................       0

    hourglass coefficient (default)................    0.0000E+00

    bulk viscosity type (default)..................       0
          eq.-2: standard +types 2,4,10,16,17 shells+IE 
          eq.-1: standard +types 2,4,10,16,17 shells    
          eq.+1: standard                               

    quadratic bulk viscosity coefficient...........    0.0000E+00

    linear bulk viscosity coefficient..............    0.0000E+00

    bulk viscosity type for beams..................       0
          eq.+1: standard  
          eq.+2: standard + IE 

    flag for rayleigh damping input................       0
          eq.0:  off (default)                          
          eq.1:  on                                     

    flag for rigid/deformable material switching...       1
          eq.1:  off (default)                          
          eq.2:  on                                     
          eq.3:  on and automatic switching             

    thermal effects option.........................       0
          eq.0:  no thermal effects                      
          eq.n:  nodal temps scaled by load ftn -n-      
          eq.-1: coupled thermal mechanical analysis     
          eq.-2: temperature data input option 2         
          eq.-3: thermal solution                        
          eq.-4: Read binary temperature file            
          eq.-9998: user defined load set temp. input    
          eq.-9999: temperature data input option 1      

    thermal curve ID used for dynamic relaxation...       0

    super plastic forming input option.............       0
          eq.0:  skip input                              
          eq.1:  read superplastic input section         

    objective stress update for large Dt...........       0
          eq.0:  off (default)                           
          eq.1:  on globally                             
          eq.2:  on for part subset                      

    default contact parameters input option........       0
          eq.0:  no                                      
          eq.1:  yes                                     

    number of reinforcement cards for mat 84&85....       0

    output interval for aea_crack database.........    0.0000E+00

    number of non local materials..................       0

    neighbours arrays oversized of (%).............       0

    number of parts defined for adaptive failure...       0

    number of elements with specified temperature..       0

    number of parts with spotweld rupture stress...       0

    number of parts with spotweld rupture parametr.       0

    number of spotweld lists.......................       0

    number of rows of opt=10 spot weld failure data       0


    CONTROL CARD 14. Computation Options-Damping

    load curve specifying system damping...........       0
          eq.-1: system damping by material             
          eq. n: load curve n defines system damping    

    optional constant for system damping...........    0.0000E+00

    system damping scale factor for x-translation..    0.1000E+01

    system damping scale factor for y-translation..    0.1000E+01

    system damping scale factor for z-translation..    0.1000E+01

    system damping scale factor for x-rotation.....    0.1000E+01

    system damping scale factor for y-rotation.....    0.1000E+01

    system damping scale factor for z-rotation.....    0.1000E+01

    stress initialization flag ....................       0
          eq.-1:  dynamic relaxation (debug option)       
          eq.0:   off                                     
          eq.1:   dynamic relaxation                      
          eq.2:   deformed geometry                       
          eq.3:   dynamic relaxation with part set ID     
          eq.5:   initialize implicitly                   
          eq.-999:off-not activated by load curves        

    convergence check interval (dynamic relaxation)     250

    convergence tolerance for dynamic relaxation...    0.1000E-02

    dynamic relaxation factor......................    0.9950E+00

    termination time for dynamic relaxation........    0.0000E+00
          eq.0.0:  convergence terminates relaxation     
          gt.0.0:  termination at specified time         
                   unless convergence is attained        

    scale factor for dyn relax time step...........    0.9000E+00

    automatic determination of dr factors..........       0
          eq.0:  off (default)                          
          eq.1:  on                                     

    convergence tolerance for above option.........    0.0000E+00

    active part set ID for dynamic relaxation .....       0



    CONTROL CARD 15. Computation Options-Contact

    scale factor for contact interface penalties...    0.1000E+00

    scale factor for rigid wall penalties..........    0.0000E+00

    flag to activate MADYMO contact coupling.......       0
          eq.0:  inactive                              
          eq.1:  active                                

    track initial penetrations in auto contacts....       0
          eq.0:  no, move node to contact surface      
          eq.1:  yes, initial penetrations remain      

    ignore initial separations in tied contacts....       0
          eq.0:  no, eliminate gaps most accurate      
          eq.1:  yes, may lock rotations               

    contact initial penetration check option.......       1
          eq.1:  off (default)                           
          eq.2:  on                                      

    thickness considered in type 3, 5 or 10 contact       0
          eq.0:  off                                     
          eq.1:  on, but rigid bodies excluded           
          eq.2:  on, rigid bodies are included           

    penalty stiffness option.......................       0
          eq.1:  minimum master/slave value             
          eq.2:  master segment stiffness (old way)     
          eq.3:  slave node stiffness                   
          eq.4:  slave node area/mass weighted          
          eq.5:  like 4 but k proportional to 1/thick   

    thickness changes considered in type 4 contact.       0
          eq.0:  no                                      
          eq.1:  yes                                     

    automatic reorientation option.................       1
          eq.1:  on for automatic contact definitions   
          eq.2:  on                                     
          eq.3:  off                                    

    memory allocation-user contact surface control        0
          gt.0:  memory per interface passed to user    

    memory allocation-user contact surface frict...       0
          gt.0:  memory per interface passed to user    

    number of time steps between contact searching.       0
          eq.0:  LS-DYNA chooses value                  

    intermittent searching in type 3 contact.......       0
          eq.0:  off (default)                           
          eq.1:  on                                      

    release factor for extra searching option......    0.4000E+01

    treatment of nodes in eroding contact..........       0
          eq.0:  delete from calculation                
          eq.1:  keep nodes of eroded solids            
          eq.2:  keep nodes of eroded solids & shells   

    calculation of frictional sliding energy.......       0
          eq.0:  do not calculate                       
          eq.1:  calculate                              

    shell thickness in single surface contact......       0
          eq.0:  use characteristic shell dimension     
          eq.1:  use actual shell thickness             

    time step size override for eroding contact....       0
          eq.0:  contact time size may control dt        
          eq.1:  contact is not considered for dt        

    number of automatic positioning definitions....       0

    print slave node/segment in spotweld contact...       0
          eq.0:  no                                      
          eq.1:  yes, in D3HSP file                     

    option for unconstrained spotweld node/face....       0
          eq.0:  ignore                                 
          eq.1:  terminate                              
          eq.2:  delete weld and continue               

    delete spotweld if tied to failed shell........       0
          eq.0:  no                                     
          eq.1:  yes                                    

    number of friction table definitions...........       0

    read in friction table for automatic contacts..       0
          eq.0:  no                                     
          ne.0:  number of part pair defined for table  

    read in spotweld failure table.................       0
          eq.0:  no                                     
          ne.0:  number of part pair defined for table  

    contact thickness scaling option for welds.....    0.0000E+00
          eq.0.0: inactive                              
          gt.0.0: scale factor on thickness             

    beam spotweld radius scale factor for thinning.    0.0000E+00
          eq.0.0: inactive                              
          gt.0.0: scale factor on radius                

    read in smooth contact flags...................       0
          eq.0:  no
          eq.1:  yes
          Warning: in Shared Memory Program smooth option only 
          available for Forming type  contact

    flag for eliminating faces on symmetry planes..       0
          eq.0:  use all faces                          
          eq.1:  delete faces from contact              

    spotweld tension scaling load curve............       0
    spotweld compression scaling load curve........       0
    spotweld direction scaling table.(tension).....       0
    spotweld direction scaling table (shear)  .....       0
          eq.0:  table for tension scaling is used      
    spotweld print flag (on=1).....................       0

    number of contact volume definitions...........       0

    flag to use one way node to surface erosion....       0

    flag for implicit rigidwall gap stiffness......       1

          eq.1:  add initial gap stiffness              
          eq.2:  do not add gap stiffness               

    death time for gap stiffness...................    0.0000E+00

    penalty scale factor for rigid walls...........    0.1000E+01

    flag for covariant contact formulation.........       0

          eq.0:  covariant formulation not used         
          eq.1:  covariant formulation used             

    flag for offsetting thick thermal contact      
    surfaces in the thermal contacts...............       0

          eq.0:  no offset, if thickness is not included
                 contact will act on shell mid-surface  
          eq.1:  offsets are applied so that contact    
                 always act on the shell outer surfaces 

    flag for shell segment edge shape..............       0
          eq.0:  shell edges assumed round (default)    
          eq.1:  shell edges assumed square             

    stiffness calculation for segment based contact       0
          eq.0:  use material density (default)         
          eq.1:  use nodal masses                       

    flag for consistent thermal contact algorithm..       1
          lt.0:  conduction evenly distributed (pre-R4) 
          eq.1:  conduction weighted by shape functions,
                 reduced integration (default)          
          eq.2:  conduction weighted by shape functions,
                 full integration                       

    flag for optional tied interface update .......       0
          eq.0:  integrate accelerations for v and u    
          eq.1:  differentiate u to obtain v and a      

    flag for overlapping force transducers.........       0
          eq.0:  forces applied to first found (faster) 
          eq.1:  forces applied to all transducers      

    scale factor for contact interface mass scaling    0.0000E+00
    shell thickness scale factor for rigidwall ....    0.0000E+00
    flag of contact involving isogeometric ele ....       0
          eq.0:  interp. node vs. interp. facet         
          eq.1:  interp. node vs. isogeometric element  


    CONTROL CARD 16. Computation Options-Parallel

    number of cpus for parallel computations.......       1

    parallel right hand side assembly..............       0
          eq.0:  on  (default)                          
          eq.1:  off                                    

    flag for automatic subcycling..................       0
          eq.0:  off (default)                          
          eq.1:  on                                     

    number of part IDs for mass scaled subcycling..       0

    flag for repeatability in parallel solution....       0
          eq.1:  on  (ordered RHS summation-slower)     
          eq.2:  off (default)                          

    use memory to parallelize repeatability option.       0
          eq.0:  off                                    
          eq.1:  on                                     


    CONTROL CARD 17. Computation Options-Coupling

    length conversion factor coupling..............    0.1000E+01

    time conversion factor coupling................    0.1000E+01

    force conversion factor coupling...............    0.1000E+01

    material repositioning flag....................       0
          eq.0:  off                                    
          eq.1:  input data defines repositioning       
          eq.2:  no repositioning of defined nodes      

    Flag to flip X-coordinates.....................       0

    Flag to flip Y-coordinates.....................       0

    Flag to flip Z-coordinates.....................       0

    Idle time for LS-DYNA..........................    0.0000E+00

    Implicit coupling for springback...............       0
          eq.0:  off (default)                          
          eq.1:  on                                     
          eq.2:  seamless springback                    

    DYNAIN output format...........................       0
          eq. 0:  ascii                                 
          eq. 1:  binary                                
          eq. 2:  ascii and binary                      
          eq.10:  ascii (large)                         
          eq.11:  binary (large internal ASCII)         
          eq.12:  ascii and binary (large)              

    Mismatched acoustic coupling input flag........       0
          eq.0:  off                                    
          eq.1:  on                                     

    Two sided acoustic coupling input flag.........       0
          eq.0:  off                                    
          eq.1:  on                                     

    Coupling with USA..............................       0
          eq.0:  off (default)                          
          eq.1:  on                                     

    Number of steps for CAL3D/MADYMO3D subcycling..       1

    Number of MCOL coupled rigid bodies............       0

    Number of vehicles to be initialized...........       0

    Coupling with CFD..............................       0
          eq.0:  off (default)                           
          eq.1:  FAST3D                                  
          eq.2:  boundary element method                 


    CONTROL CARD 18. Computation Options-Output Control

    printout of node, element, velocity input data.       0
          eq.0:  on                                      
          eq.1:  off                                     

    time zero printout of element time step size...       0
          eq.0:  no printout                             
          eq.1:  print dt for each element at t=0        

    problem status report interval in printer file.     100

    number of cycles between restart dumps.........99999999

    number of cycles between running restart dumps.99999999

    number of files to rewrite running restart ....       1

    node and element printout suppression..........       0
          eq.1:  nodal data is not echoed                
          eq.2:  element data is not echoed              
          eq.3:  node and element data is not echoed     
    debug information in messag file option........       0
          eq.0:  no                                      
          eq.1:  yes                                     
    update of beam reference nodes.................       0
          eq.0:  off                                     
          eq.1:  on-unique reference nodes required      
    averaged acceleration-print/time history files.       0
          eq.0:  no average (default)                   
          eq.1:  averaged between output intervals      
          eq.2:  user defined filtering                 
    output interval for interface file.............    0.4000E-04
    default print flag for the RBDOUT/MATSUM files        0
          eq.0: RBDOUT and MATSUM       
          eq.1: RBDOUT only             
          eq.2: MATSUM only             
          eq.3: no output               
    include eroded and lumped mass in MATSUM ......       0
          eq.0:  no                                     
          eq.1:  yes                                    
    include 10-node connectivities in D3PLOT ......       2
          eq.1:  yes                                     
          eq.2:  no                                      
    write spring forward database at termination...       0
          eq.0:  no                                      
          eq.1:  include all deformable nodes            
          eq.2:  include nodes of material subset        
    d3plot and d3thdt binary output format.........       0
          eq.0 default                                   
          eq.1 32ieee                                    
    flush output file interval.....................    5000
    output interval for d3part database............    0.0000E+00
    interval via load curve for part database......       0
    number of part blocks..........................       0
    Maximum number of messages.....................       0
    Print flag for digitized curve data............       0
    Print info. of 1d belt created for 2d belt.....       0
    ELOUT shell ouptput coordinate system flag.....       0
          eq.0 default                                  
          eq.1 local element coordinate system          
          eq.2 global cooridate sytstem                 
    number of parts removed from d3plot ...........       0
    number of levels of timing at termination .....       2
    max frequency of element failure summaries.....       1


    CONTROL CARD 19. Computation Options-Output Energy

    hourglass energy calculation...................       0
          eq.1:  off (default)                          
          eq.2:  on                                     

    rigid wall energy calculations.................       1
          eq.1:  off (default)                          
          eq.2:  on                                     

    contact energy calculation.....................       2
          eq.1:  off                                    
          eq.2:  on                                     

    flag for rayleigh damping energy calculations..       0
          eq.1:  off (default)                          
          eq.2:  on                                     

    flag for material energy in D3THDT file........       2
          eq.1:  off                                    
          eq.2:  on  (default)                          


    CONTROL CARD 20. Computation Options LS-POST Database

    time step between dumps of complete state data.    0.4000E-03

    output interval for interface force database...    0.4000E-03

    time step between dumps of time history data...    0.0000E+00

    number of nodal printout blocks................       0

    number of solid element printout blocks........       0

    number of beam element printout blocks.........       0

    number of discrete element printout blocks.....       0

    number of seatbelt element printout blocks.....       0

    number of shell element printout blocks........       0

    number of thick shell element printout blocks..       0

    load curve-interval between state data dumps...       0

    behavior of state data dump curve..............       1
          eq.1:  load curve value added to current time 
          eq.2:  plot time T=current t+curve at T       
          eq.3:  plot at each ordinate point            

    load curve-interval between force data dumps...       0

    load curve-interval between history data dumps.       0

    flag, user output into shell resultant vector..       0
          eq.1:  off (default)                          
          eq.2:  on, user subroutine is called           

    number of subsystems for SSSTAT file ..........       0

    behavior of intfor data curve..................       1
          eq.1:  load curve value added to current time 
          eq.2:  plot time T=current t+curve at T       
          eq.3:  plot at each ordinate point            


    CONTROL CARD 21. Computation Options LS-POST Database

    flag to write ls-post database during dyn rel..       0
          eq.0:  no database write (default)            
          eq.1:  write database at convergence check    
          eq.n:  write database at nth check            

    number of extra history variables for solids...       0

    number of integration points output/solid .....       1

    number of extra history var/int.pt for shells..       0

    number of integration points output/shell .....       3
          lt.0:  also output 4 points in plane          

    flag for including strain tensor in database...       0
          eq.0:  exclude (default)                      
          eq.1:  include strains (solid and shells)     

    flag for including stress tensor in database...       1
          eq.1:  include (default)                      
          eq.2:  exclude                                

    flag for including effective plastic strain....       1
          eq.1:  include (default)                      
[...]

 dt of cycle   20000 is controlled by solid           1248 of part         3

 time...........................   7.47370E-02
 time step......................   3.73704E-06
 kinetic energy.................   3.97483E+02
 internal energy................   1.00000E-20
 spring and damper energy.......   1.00000E-20
 joint internal energy..........   0.00000E+00
 system damping energy..........   0.00000E+00
 sliding interface energy.......   0.00000E+00
 external work..................   3.97990E+02
 eroded kinetic energy..........   0.00000E+00
 eroded internal energy.........   0.00000E+00
 eroded hourglass energy........   0.00000E+00
 total energy...................   3.97483E+02
 total energy / initial energy..   9.98724E-01
 energy ratio w/o eroded energy.   9.98724E-01
 global x velocity..............  -2.68498E-08
 global y velocity..............   4.02747E-10
 global z velocity..............  -2.81815E-06
 cpu time per zone cycle............         0 nanoseconds
 average cpu time per zone cycle....         0 nanoseconds
 average clock time per zone cycle..         0 nanoseconds

   20000 t 7.4737E-02 dt 3.74E-06 flush i/o buffers            10/24/21 14:46:58
   20016 t 7.4797E-02 dt 3.74E-06 write d3plot file            10/24/21 14:46:58

 dt of cycle   20100 is controlled by solid           1248 of part         3

 time...........................   7.51107E-02
 time step......................   3.73704E-06
 kinetic energy.................   5.06587E+02
 internal energy................   1.00000E-20
 spring and damper energy.......   1.00000E-20
 joint internal energy..........   0.00000E+00
 system damping energy..........   0.00000E+00
 sliding interface energy.......   0.00000E+00
 external work..................   5.07157E+02
 eroded kinetic energy..........   0.00000E+00
 eroded internal energy.........   0.00000E+00
 eroded hourglass energy........   0.00000E+00
 total energy...................   5.06587E+02
 total energy / initial energy..   9.98877E-01
 energy ratio w/o eroded energy.   9.98877E-01
 global x velocity..............  -2.57758E-08
 global y velocity..............   4.69871E-10
 global z velocity..............  -2.69787E-06
 cpu time per zone cycle............         0 nanoseconds
 average cpu time per zone cycle....         0 nanoseconds
 average clock time per zone cycle..         0 nanoseconds

   20123 t 7.5197E-02 dt 3.74E-06 write d3plot file            10/24/21 14:46:58

 dt of cycle   20200 is controlled by solid           1248 of part         3

 time...........................   7.54844E-02
 time step......................   3.73704E-06
 kinetic energy.................   6.28426E+02
 internal energy................   1.00000E-20
 spring and damper energy.......   1.00000E-20
 joint internal energy..........   0.00000E+00
 system damping energy..........   0.00000E+00
 sliding interface energy.......   0.00000E+00
 external work..................   6.29061E+02
 eroded kinetic energy..........   0.00000E+00
 eroded internal energy.........   0.00000E+00
 eroded hourglass energy........   0.00000E+00
 total energy...................   6.28426E+02
 total energy / initial energy..   9.98991E-01
 energy ratio w/o eroded energy.   9.98991E-01
 global x velocity..............  -2.57758E-08
 global y velocity..............   1.34249E-09
 global z velocity..............  -2.64632E-06
 cpu time per zone cycle............         0 nanoseconds
 average cpu time per zone cycle....         0 nanoseconds
 average clock time per zone cycle..         0 nanoseconds

   20230 t 7.5597E-02 dt 3.74E-06 write d3plot file            10/24/21 14:46:58

 dt of cycle   20300 is controlled by solid           1248 of part         3

 time...........................   7.58581E-02
 time step......................   3.73704E-06
 kinetic energy.................   7.62650E+02
 internal energy................   1.00000E-20
 spring and damper energy.......   1.00000E-20
 joint internal energy..........   0.00000E+00
 system damping energy..........   0.00000E+00
 sliding interface energy.......   0.00000E+00
 external work..................   7.63343E+02
 eroded kinetic energy..........   0.00000E+00
 eroded internal energy.........   0.00000E+00
 eroded hourglass energy........   0.00000E+00
 total energy...................   7.62650E+02
 total energy / initial energy..   9.99092E-01
 energy ratio w/o eroded energy.   9.99092E-01
 global x velocity..............  -2.36278E-08
 global y velocity..............   2.14798E-09
 global z velocity..............  -2.64632E-06
 cpu time per zone cycle............         0 nanoseconds
 average cpu time per zone cycle....         0 nanoseconds
 average clock time per zone cycle..         0 nanoseconds

   20337 t 7.5996E-02 dt 3.74E-06 write d3plot file            10/24/21 14:46:58

 dt of cycle   20400 is controlled by solid           1248 of part         3

 time...........................   7.62318E-02
 time step......................   3.73704E-06
 kinetic energy.................   9.08788E+02
 internal energy................   1.00000E-20
 spring and damper energy.......   1.00000E-20
 joint internal energy..........   0.00000E+00
 system damping energy..........   0.00000E+00
 sliding interface energy.......   0.00000E+00
 external work..................   9.09542E+02
 eroded kinetic energy..........   0.00000E+00
 eroded internal energy.........   0.00000E+00
 eroded hourglass energy........   0.00000E+00
 total energy...................   9.08788E+02
 total energy / initial energy..   9.99171E-01
 energy ratio w/o eroded energy.   9.99171E-01
 global x velocity..............  -4.29597E-08
 global y velocity..............   8.05494E-10
 global z velocity..............  -2.61195E-06
 cpu time per zone cycle............         0 nanoseconds
 average cpu time per zone cycle....         0 nanoseconds
 average clock time per zone cycle..         0 nanoseconds

   20444 t 7.6396E-02 dt 3.74E-06 write d3plot file            10/24/21 14:46:58

 dt of cycle   20500 is controlled by solid           1248 of part         3

 time...........................   7.66055E-02
 time step......................   3.73704E-06
 kinetic energy.................   1.06622E+03
 internal energy................   1.00000E-20
 spring and damper energy.......   1.00000E-20
 joint internal energy..........   0.00000E+00
 system damping energy..........   0.00000E+00
 sliding interface energy.......   0.00000E+00
 external work..................   1.06703E+03
 eroded kinetic energy..........   0.00000E+00
 eroded internal energy.........   0.00000E+00
 eroded hourglass energy........   0.00000E+00
 total energy...................   1.06622E+03
 total energy / initial energy..   9.99242E-01
 energy ratio w/o eroded energy.   9.99242E-01
 global x velocity..............  -4.94036E-08
 global y velocity..............   2.01373E-10
 global z velocity..............  -2.47448E-06
 cpu time per zone cycle............         0 nanoseconds
 average cpu time per zone cycle....         0 nanoseconds
 average clock time per zone cycle..         0 nanoseconds

   20552 t 7.6800E-02 dt 3.74E-06 write d3plot file            10/24/21 14:46:58

 dt of cycle   20600 is controlled by solid           1248 of part         3

 time...........................   7.69792E-02
 time step......................   3.73704E-06
 kinetic energy.................   1.23418E+03
 internal energy................   1.00000E-20
 spring and damper energy.......   1.00000E-20
 joint internal energy..........   0.00000E+00
 system damping energy..........   0.00000E+00
 sliding interface energy.......   0.00000E+00
 external work..................   1.23504E+03
 eroded kinetic energy..........   0.00000E+00
 eroded internal energy.........   0.00000E+00
 eroded hourglass energy........   0.00000E+00
 total energy...................   1.23418E+03
 total energy / initial energy..   9.99305E-01
 energy ratio w/o eroded energy.   9.99305E-01
 global x velocity..............  -4.83296E-08
 global y velocity..............   1.34249E-10
 global z velocity..............  -2.71505E-06
 cpu time per zone cycle............         0 nanoseconds
 average cpu time per zone cycle....         0 nanoseconds
 average clock time per zone cycle..         0 nanoseconds

   20659 t 7.7200E-02 dt 3.74E-06 write d3plot file            10/24/21 14:46:58

 dt of cycle   20700 is controlled by solid           1248 of part         3

 time...........................   7.73529E-02
 time step......................   3.73704E-06
 kinetic energy.................   1.41168E+03
 internal energy................   1.00000E-20
 spring and damper energy.......   1.00000E-20
 joint internal energy..........   0.00000E+00
 system damping energy..........   0.00000E+00
 sliding interface energy.......   0.00000E+00
 external work..................   1.41258E+03
 eroded kinetic energy..........   0.00000E+00
 eroded internal energy.........   0.00000E+00
 eroded hourglass energy........   0.00000E+00
 total energy...................   1.41168E+03
 total energy / initial energy..   9.99360E-01
 energy ratio w/o eroded energy.   9.99360E-01
 global x velocity..............  -5.26256E-08
 global y velocity..............   9.39743E-10
 global z velocity..............  -2.61195E-06
 cpu time per zone cycle............         0 nanoseconds
 average cpu time per zone cycle....         0 nanoseconds
 average clock time per zone cycle..         0 nanoseconds

   20766 t 7.7600E-02 dt 3.74E-06 write d3plot file            10/24/21 14:46:58

 dt of cycle   20800 is controlled by solid           1248 of part         3

 time...........................   7.77266E-02
 time step......................   3.73704E-06
 kinetic energy.................   1.59755E+03
 internal energy................   1.00000E-20
 spring and damper energy.......   1.00000E-20
 joint internal energy..........   0.00000E+00
 system damping energy..........   0.00000E+00
 sliding interface energy.......   0.00000E+00
 external work..................   1.59849E+03
 eroded kinetic energy..........   0.00000E+00
 eroded internal energy.........   0.00000E+00
 eroded hourglass energy........   0.00000E+00
 total energy...................   1.59755E+03
 total energy / initial energy..   9.99411E-01
 energy ratio w/o eroded energy.   9.99411E-01
 global x velocity..............  -4.83296E-08
 global y velocity..............   8.72618E-10
 global z velocity..............  -2.61195E-06
 cpu time per zone cycle............         0 nanoseconds
 average cpu time per zone cycle....         0 nanoseconds
 average clock time per zone cycle..         0 nanoseconds

   20873 t 7.7999E-02 dt 3.74E-06 write d3plot file            10/24/21 14:46:58

 dt of cycle   20900 is controlled by solid           1248 of part         3

 time...........................   7.81003E-02
 time step......................   3.73704E-06
 kinetic energy.................   1.79037E+03
 internal energy................   1.00000E-20
 spring and damper energy.......   1.00000E-20
 joint internal energy..........   0.00000E+00
 system damping energy..........   0.00000E+00
 sliding interface energy.......   0.00000E+00
 external work..................   1.79135E+03
 eroded kinetic energy..........   0.00000E+00
 eroded internal energy.........   0.00000E+00
 eroded hourglass energy........   0.00000E+00
 total energy...................   1.79037E+03
 total energy / initial energy..   9.99456E-01
 energy ratio w/o eroded energy.   9.99456E-01
 global x velocity..............  -4.94036E-08
 global y velocity..............   1.67811E-09
 global z velocity..............  -2.57758E-06
 cpu time per zone cycle............         0 nanoseconds
 average cpu time per zone cycle....         0 nanoseconds
 average clock time per zone cycle..         0 nanoseconds

   20980 t 7.8399E-02 dt 3.74E-06 write d3plot file            10/24/21 14:46:58

 dt of cycle   21000 is controlled by solid           1248 of part         3

 time...........................   7.84740E-02
 time step......................   3.73704E-06
 kinetic energy.................   1.98852E+03
 internal energy................   1.00000E-20
 spring and damper energy.......   1.00000E-20
 joint internal energy..........   0.00000E+00
 system damping energy..........   0.00000E+00
 sliding interface energy.......   0.00000E+00
 external work..................   1.98952E+03
 eroded kinetic energy..........   0.00000E+00
 eroded internal energy.........   0.00000E+00
 eroded hourglass energy........   0.00000E+00
 total energy...................   1.98852E+03
 total energy / initial energy..   9.99500E-01
 energy ratio w/o eroded energy.   9.99500E-01
 global x velocity..............  -5.15516E-08
 global y velocity..............   9.39743E-10
 global z velocity..............  -2.54321E-06
 cpu time per zone cycle............         0 nanoseconds
 average cpu time per zone cycle....         0 nanoseconds
 average clock time per zone cycle..         0 nanoseconds

   21087 t 7.8799E-02 dt 3.74E-06 write d3plot file            10/24/21 14:46:58

 dt of cycle   21100 is controlled by solid           1248 of part         3

 time...........................   7.88477E-02
 time step......................   3.73704E-06
 kinetic energy.................   2.19011E+03
 internal energy................   1.00000E-20
 spring and damper energy.......   1.00000E-20
 joint internal energy..........   0.00000E+00
 system damping energy..........   0.00000E+00
 sliding interface energy.......   0.00000E+00
 external work..................   2.19112E+03
 eroded kinetic energy..........   0.00000E+00
 eroded internal energy.........   0.00000E+00
 eroded hourglass energy........   0.00000E+00
 total energy...................   2.19011E+03
 total energy / initial energy..   9.99538E-01
 energy ratio w/o eroded energy.   9.99538E-01
 global x velocity..............  -4.72556E-08
 global y velocity..............   8.05494E-10
 global z velocity..............  -2.81815E-06
 cpu time per zone cycle............         0 nanoseconds
 average cpu time per zone cycle....         0 nanoseconds
 average clock time per zone cycle..         0 nanoseconds

   21194 t 7.9199E-02 dt 3.74E-06 write d3plot file            10/24/21 14:46:58

 dt of cycle   21200 is controlled by solid           1248 of part         3

 time...........................   7.92214E-02
 time step......................   3.73704E-06
 kinetic energy.................   2.39303E+03
 internal energy................   1.00000E-20
 spring and damper energy.......   1.00000E-20
 joint internal energy..........   0.00000E+00
 system damping energy..........   0.00000E+00
 sliding interface energy.......   0.00000E+00
 external work..................   2.39404E+03
 eroded kinetic energy..........   0.00000E+00
 eroded internal energy.........   0.00000E+00
 eroded hourglass energy........   0.00000E+00
 total energy...................   2.39303E+03
 total energy / initial energy..   9.99577E-01
 energy ratio w/o eroded energy.   9.99577E-01
 global x velocity..............  -4.72556E-08
 global y velocity..............   8.72618E-10
 global z velocity..............  -2.88689E-06
 cpu time per zone cycle............         0 nanoseconds
 average cpu time per zone cycle....         0 nanoseconds
 average clock time per zone cycle..         0 nanoseconds


 dt of cycle   21300 is controlled by solid           1248 of part         3

 time...........................   7.95951E-02
 time step......................   3.73704E-06
 kinetic energy.................   2.59494E+03
 internal energy................   1.00000E-20
 spring and damper energy.......   1.00000E-20
 joint internal energy..........   0.00000E+00
 system damping energy..........   0.00000E+00
 sliding interface energy.......   0.00000E+00
 external work..................   2.59595E+03
 eroded kinetic energy..........   0.00000E+00
 eroded internal energy.........   0.00000E+00
 eroded hourglass energy........   0.00000E+00
 total energy...................   2.59494E+03
 total energy / initial energy..   9.99613E-01
 energy ratio w/o eroded energy.   9.99613E-01
 global x velocity..............  -4.83296E-08
 global y velocity..............  -1.34249E-10
 global z velocity..............  -2.95562E-06
 cpu time per zone cycle............         0 nanoseconds
 average cpu time per zone cycle....         0 nanoseconds
 average clock time per zone cycle..         0 nanoseconds

   21301 t 7.9599E-02 dt 3.74E-06 write d3plot file            10/24/21 14:46:58

 dt of cycle   21400 is controlled by solid           1248 of part         3

 time...........................   7.99688E-02
 time step......................   3.73704E-06
 kinetic energy.................   2.79333E+03
 internal energy................   1.00000E-20
 spring and damper energy.......   1.00000E-20
 joint internal energy..........   0.00000E+00
 system damping energy..........   0.00000E+00
 sliding interface energy.......   0.00000E+00
 external work..................   2.79431E+03
 eroded kinetic energy..........   0.00000E+00
 eroded internal energy.........   0.00000E+00
 eroded hourglass energy........   0.00000E+00
 total energy...................   2.79333E+03
 total energy / initial energy..   9.99650E-01
 energy ratio w/o eroded energy.   9.99650E-01
 global x velocity..............  -4.61816E-08
 global y velocity..............   1.40961E-09
 global z velocity..............  -3.02436E-06
 cpu time per zone cycle............         0 nanoseconds
 average cpu time per zone cycle....         0 nanoseconds
 average clock time per zone cycle..         0 nanoseconds

   21408 t 7.9999E-02 dt 3.74E-06 write d3plot file            10/24/21 14:46:58
 
 *** termination time reached ***
   21408 t 8.0002E-02 dt 3.74E-06 write d3dump01 file          10/24/21 14:46:58
   21408 t 8.0002E-02 dt 3.74E-06 write d3plot file            10/24/21 14:46:58

 N o r m a l    t e r m i n a t i o n                          10/24/21 14:46:58

 S t o r a g e   a l l o c a t i o n   

 Memory required to complete solution   :       409934
 Additional dynamically allocated memory:       146104
                                   Total:       556038

 T i m i n g   i n f o r m a t i o n
                        CPU(seconds)   %CPU  Clock(seconds) %Clock
  ----------------------------------------------------------------
  Keyword Processing ... 0.0000E+00    0.00     2.0000E-02    1.97
    KW Reading ......... 0.0000E+00    0.00     7.0000E-03    0.69
    KW Writing ......... 0.0000E+00    0.00     6.0000E-03    0.59
  Initialization ....... 0.0000E+00    0.00     6.5000E-02    6.42
    Init Proc Phase 1 .. 0.0000E+00    0.00     2.2000E-02    2.17
    Init Proc Phase 2 .. 0.0000E+00    0.00     2.0000E-03    0.20
  Element processing ... 0.0000E+00    0.00     1.0200E-01   10.07
    Solids ............. 0.0000E+00    0.00     8.9000E-02    8.79
  Binary databases ..... 0.0000E+00    0.00     6.3000E-02    6.22
  ASCII database ....... 0.0000E+00    0.00     4.0000E-03    0.39
  Contact algorithm .... 0.0000E+00    0.00     2.0000E-03    0.20
  Rigid Bodies ......... 0.0000E+00    0.00     1.9600E-01   19.35
  Other ................ 1.0000E+00  100.00     5.6100E-01   55.38
  ----------------------------------------------------------------
  T o t a l s            1.0000E+00  100.00     1.0130E+00  100.00

 Problem time       =    8.0002E-02
 Problem cycle      =     21408
 Total CPU time     =         1 seconds (   0 hours  0 minutes  1 seconds)
 CPU time per zone cycle  =        40 nanoseconds
 Clock time per zone cycle=        37 nanoseconds

 Number of CPU's    1
 NLQ used/max     136/  136
 Start time   10/24/2021 14:46:57  
 End time     10/24/2021 14:46:58  
 Elapsed time       1 seconds(   0 hours  0 min.  1 sec.) for   21408 cycles

 N o r m a l    t e r m i n a t i o n                          10/24/21 14:46:58
