$$ HM_OUTPUT_DECK created 17:55:48 07-18-2023 by HyperMesh Version 2021.0.0.33
$$ Ls-dyna Input Deck Generated by HyperMesh Version  : 2021.0.0.33
$$ Generated using HyperMesh-Ls-dyna 971_R12.0 Template Version : 2021.0.0.33
*KEYWORD
*TITLE
test_screw_joint                                                                
*CONTROL_TERMINATION
      0.08                                                  
*CONTROL_TIMESTEP
       0.0       0.9                                                            
*DATABASE_BINARY_D3PLOT
4.0000E-04                                        
          
*NODE
$    NID               X               Y               Z      TC      RC
       1            10.0            10.0             0.0                
       2            10.0             9.0             0.0                
       3            10.0             8.0             0.0                
       4            10.0             7.0             0.0                
       5            10.0             6.0             0.0                
       6            10.0             5.0             0.0                
       7            10.0             4.0             0.0                
       8            10.0             3.0             0.0                
       9            10.0             2.0             0.0                
      10            10.0             1.0             0.0                
      11            10.0 1.776356839E-15             0.0                
      12            10.0 1.776356839E-15             1.0                
      13            10.0 1.776356839E-15             2.0                
      14            10.0 1.776356839E-15             3.0                
      15            10.0 1.776356839E-15             4.0                
      16            10.0 1.776356839E-15             5.0                
      17            10.0 1.776356839E-15             6.0                
      18            10.0 1.776356839E-15             7.0                
      19            10.0 1.776356839E-15             8.0                
      20            10.0 1.776356839E-15             9.0                
$ ... 1548 like lines cut
*ELEMENT_SOLID
$    EID     PID
$     N1      N2      N3      N4      N5      N6
    1117       2
    1332    1353    1404    1402    1333    1333    1403    1403
    1118       2
    1402    1404    1407    1405    1403    1403    1406    1406
    1119       2
    1405    1407    1410    1408    1406    1406    1409    1409
    1120       2
    1408    1410    1413    1411    1409    1409    1412    1412
    1121       2
    1411    1413    1416    1414    1412    1412    1415    1415
    1122       2
    1414    1416    1419    1417    1415    1415    1418    1418
    1123       2
    1417    1419    1422    1420    1418    1418    1421    1421
    1124       2
    1420    1422    1425    1423    1421    1421    1424    1424
    1133       2
    1337    1336    1460    1458    1351    1351    1459    1459
    1134       2
    1458    1460    1463    1461    1459    1459    1462    1462
$ ... 60 like lines cut
*ELEMENT_SOLID
$    EID     PID
$     N1      N2      N3      N4      N5      N6      N7      N8
     101       1
      33     119     121      32     122     123     124     125
     102       1
     122     123     124     125     126     127     128     129
     103       1
     126     127     128     129     130     131     132     133
     104       1
     130     131     132     133     134     135     136     137
     105       1
     134     135     136     137     138     139     140     141
     106       1
     138     139     140     141     142     143     144     145
     107       1
     142     143     144     145     146     147     148     149
     108       1
     146     147     148     149     150     151     152     153
     109       1
     150     151     152     153     154     155     156     157
     110       1
     154     155     156     157     158     159     160     161
$ ... 2188 like lines cut
*PART
$HWCOLOR COMPS       1       4
base                                                                            
         1         1         2                                                  
$HWCOLOR COMPS       2       5
screw                                                                           
         2         1         2                                                  
$HWCOLOR COMPS       3      32
elastic                                                                         
         3         1         1                                                  
*MAT_ELASTIC
$HMNAME MATERIAL         1MAT1                                                  
$HWCOLOR MATERIAL         1       7                                             
$      MID       RHO         E        PR        DA        DB         K
         17.8500E-0430000000.0       0.3                              
*MAT_RIGID
$HMNAME MATERIAL         2MAT20                                                 
$HWCOLOR MATERIAL         2       6                                             
$      MID       RHO         E        PR         N    COUPLE         M     ALIAS
         27.8500E-0430000000.0       0.3                                        
$      CMO
          
$      LCO
          
*SECTION_SOLID
$HMNAME PROPERTIES         1sec_solid                                                                       
         1         1
*CONSTRAINED_EXTRA_NODES_SET
$HMNAME CONSTRAINEDEXTRANODE         1constrainedextranode1                                                 
         1         1         0
*CONSTRAINED_EXTRA_NODES_SET
$HMNAME CONSTRAINEDEXTRANODE         2constrainedextranode2                                                 
         2         2         0
*CONSTRAINED_JOINT_SCREW_ID
$HMNAME COMPS       2screw                                                                   
$HWCOLOR COMPS       2       5
         1                                                                      
      1530      1531      1532      1533      1534      1535                    
       5.0                              
*DEFINE_CURVE
$HMNAME CURVES         1curve_load                                                              
$HWCOLOR CURVES         1       3
$HMCURVE     1    2 curve_load                                                                      
         1                 1.0       1.0                              
$                  X                   Y
                 0.0              1000.0
                0.08              1000.0
*LOAD_NODE_POINT
$HMNAME LOADCOLS       1auto1                                                                   
$HWCOLOR LOADCOLS       1      25
      1567         2         1       1.0         0
      1568         2         1      -1.0         0
$$
$$ Sets Defined In HyperMesh
$$
*SET_NODE_LIST
$HMSET
$HMNAME SETS       1set_base                                                                
         1                                        MECH      
      1530      1532      1534
*SET_NODE_LIST
$HMSET
$HMNAME SETS       2set_screw                                                               
         2                                        MECH      
      1531      1533      1535      1567      1568
*END
